# CIF file generated by openbabel 2.4.90, see http://openbabel.sf.net
data_I
_chemical_name_common ''
_cell_length_a 10.063
_cell_length_b 17.5475
_cell_length_c 20.135
_cell_angle_alpha 76.8877
_cell_angle_beta 85.078
_cell_angle_gamma 76.9058
_space_group_name_H-M_alt 'P 1'
_space_group_name_Hall 'P 1'
loop_
    _symmetry_equiv_pos_as_xyz
    x,y,z
loop_
    _atom_site_label
    _atom_site_type_symbol
    _atom_site_fract_x
    _atom_site_fract_y
    _atom_site_fract_z
    _atom_site_occupancy
    H0      H    0.87032   0.72301   0.68441   1.000
    H1      H    0.87033   0.72301   0.18440   1.000
    H2      H    0.01523   0.94181   0.61322   1.000
    H3      H    0.01525   0.94182   0.11321   1.000
    H4      H    0.29654   0.71731   0.68363   1.000
    H5      H    0.29655   0.71731   0.18362   1.000
    H6      H    0.62812   0.77678   0.56559   1.000
    H7      H    0.62813   0.77678   0.06558   1.000
    H8      H    0.77347   0.55797   0.49357   1.000
    H9      H    0.77348   0.55797   0.00000   1.000
    H10     H    0.63291   0.78220   0.85255   1.000
    H11     H    0.63294   0.78220   0.35253   1.000
    H12     H    0.12967   0.27701   0.81557   1.000
    H13     H    0.12969   0.27701   0.31556   1.000
    H14     H    0.98475   0.05820   0.88677   1.000
    H15     H    0.98477   0.05821   0.38677   1.000
    H16     H    0.70345   0.28271   0.81634   1.000
    H17     H    0.70347   0.28271   0.31633   1.000
    H18     H    0.37186   0.22323   0.93440   1.000
    H19     H    0.37187   0.22324   0.43439   1.000
    H20     H    0.22652   0.44206   0.00642   1.000
    H21     H    0.22653   0.44206   0.50641   1.000
    H22     H    0.36706   0.21783   0.64744   1.000
    H23     H    0.36708   0.21783   0.14743   1.000
    C24     C    0.95307   0.75497   0.67472   1.000
    C25     C    0.95309   0.75497   0.17471   1.000
    C26     C    0.92641   0.83781   0.64865   1.000
    C27     C    0.92643   0.83781   0.14864   1.000
    C28     C    0.16871   0.83496   0.64855   1.000
    C29     C    0.16873   0.83496   0.14854   1.000
    C30     C    0.78320   0.88354   0.63527   1.000
    C31     C    0.78322   0.88354   0.13526   1.000
    C32     C    0.03492   0.87763   0.63459   1.000
    C33     C    0.03493   0.87763   0.13458   1.000
    C34     C    0.28446   0.87757   0.63587   1.000
    C35     C    0.28448   0.87757   0.13586   1.000
    C36     C    0.11712   0.62271   0.71355   1.000
    C37     C    0.11714   0.62271   0.21355   1.000
    C38     C    0.19335   0.75220   0.67420   1.000
    C39     C    0.19337   0.75221   0.17419   1.000
    C40     C    0.08637   0.71154   0.68702   1.000
    C41     C    0.08639   0.71154   0.18700   1.000
    C42     C    0.64849   0.74480   0.52426   1.000
    C43     C    0.64849   0.74480   0.02425   1.000
    C44     C    0.70120   0.66202   0.53774   1.000
    C45     C    0.70121   0.66202   0.03772   1.000
    C46     C    0.70309   0.66466   0.91662   1.000
    C47     C    0.70311   0.66466   0.41661   1.000
    C48     C    0.72793   0.61650   0.60939   1.000
    C49     C    0.72794   0.61650   0.10938   1.000
    C50     C    0.73031   0.62210   0.48358   1.000
    C51     C    0.73032   0.62210   0.00000   1.000
    C52     C    0.72980   0.62211   0.85874   1.000
    C53     C    0.72983   0.62211   0.35873   1.000
    C54     C    0.57125   0.87693   0.94195   1.000
    C55     C    0.57126   0.87693   0.44194   1.000
    C56     C    0.65124   0.74736   0.90418   1.000
    C57     C    0.65126   0.74736   0.40417   1.000
    C58     C    0.62449   0.78812   0.95756   1.000
    C59     C    0.62450   0.78812   0.45755   1.000
    C60     C    0.04691   0.24505   0.82526   1.000
    C61     C    0.04693   0.24504   0.32524   1.000
    C62     C    0.07357   0.16221   0.85133   1.000
    C63     C    0.07359   0.16221   0.35133   1.000
    C64     C    0.83127   0.16506   0.85143   1.000
    C65     C    0.83129   0.16506   0.35143   1.000
    C66     C    0.21678   0.11648   0.86472   1.000
    C67     C    0.21680   0.11647   0.36471   1.000
    C68     C    0.96507   0.12239   0.86540   1.000
    C69     C    0.96509   0.12239   0.36538   1.000
    C70     C    0.71553   0.12246   0.86411   1.000
    C71     C    0.71554   0.12246   0.36411   1.000
    C72     C    0.88286   0.37731   0.78642   1.000
    C73     C    0.88288   0.37731   0.28640   1.000
    C74     C    0.80663   0.24781   0.82577   1.000
    C75     C    0.80666   0.24781   0.32576   1.000
    C76     C    0.91362   0.28848   0.81296   1.000
    C77     C    0.91363   0.28848   0.31296   1.000
    C78     C    0.35147   0.25522   0.97573   1.000
    C79     C    0.35151   0.25522   0.47572   1.000
    C80     C    0.29881   0.33800   0.96225   1.000
    C81     C    0.29879   0.33800   0.46224   1.000
    C82     C    0.29689   0.33536   0.58337   1.000
    C83     C    0.29693   0.33537   0.08336   1.000
    C84     C    0.27203   0.38351   0.89060   1.000
    C85     C    0.27206   0.38352   0.39059   1.000
    C86     C    0.26965   0.37792   0.01641   1.000
    C87     C    0.26969   0.37792   0.51639   1.000
    C88     C    0.27018   0.37792   0.64125   1.000
    C89     C    0.27018   0.37792   0.14124   1.000
    C90     C    0.42874   0.12310   0.55805   1.000
    C91     C    0.42872   0.12310   0.05804   1.000
    C92     C    0.34874   0.25266   0.59581   1.000
    C93     C    0.34873   0.25266   0.09580   1.000
    C94     C    0.37549   0.21190   0.54243   1.000
    C95     C    0.37553   0.21191   0.04242   1.000
    O96     O    0.68388   0.84749   0.66109   1.000
    O97     O    0.68390   0.84749   0.16108   1.000
    O98     O    0.75783   0.95336   0.60007   1.000
    O99     O    0.75784   0.95336   0.10006   1.000
    O100    O    0.40245   0.83816   0.66051   1.000
    O101    O    0.40246   0.83815   0.16050   1.000
    O102    O    0.26929   0.94833   0.60258   1.000
    O103    O    0.26931   0.94833   0.10257   1.000
    O104    O    0.23978   0.58571   0.72240   1.000
    O105    O    0.23980   0.58572   0.22239   1.000
    O106    O    0.01707   0.58587   0.72665   1.000
    O107    O    0.01709   0.58587   0.22664   1.000
    O108    O    0.67734   0.65294   0.65891   1.000
    O109    O    0.67735   0.65294   0.15889   1.000
    O110    O    0.79762   0.54650   0.62222   1.000
    O111    O    0.79763   0.54651   0.12220   1.000
    O112    O    0.68210   0.66177   0.79948   1.000
    O113    O    0.68212   0.66177   0.29947   1.000
    O114    O    0.79586   0.55124   0.86649   1.000
    O115    O    0.79589   0.55125   0.36648   1.000
    O116    O    0.55293   0.91366   0.88060   1.000
    O117    O    0.55295   0.91366   0.38059   1.000
    O118    O    0.54580   0.91405   0.49174   1.000
    O119    O    0.54582   0.91405   0.00000   1.000
    O120    O    0.31611   0.15252   0.83890   1.000
    O121    O    0.31613   0.15252   0.33889   1.000
    O122    O    0.24216   0.04666   0.89992   1.000
    O123    O    0.24217   0.04666   0.39991   1.000
    O124    O    0.59754   0.16187   0.83947   1.000
    O125    O    0.59756   0.16187   0.33946   1.000
    O126    O    0.73069   0.05170   0.89742   1.000
    O127    O    0.73070   0.05170   0.39741   1.000
    O128    O    0.76020   0.41430   0.77758   1.000
    O129    O    0.76022   0.41431   0.27757   1.000
    O130    O    0.98291   0.41415   0.77332   1.000
    O131    O    0.98293   0.41415   0.27331   1.000
    O132    O    0.32260   0.34706   0.84109   1.000
    O133    O    0.32263   0.34706   0.34107   1.000
    O134    O    0.20239   0.45352   0.87777   1.000
    O135    O    0.20240   0.45352   0.37776   1.000
    O136    O    0.31789   0.33826   0.70051   1.000
    O137    O    0.31791   0.33826   0.20050   1.000
    O138    O    0.20411   0.44878   0.63349   1.000
    O139    O    0.20414   0.44878   0.13348   1.000
    O140    O    0.44705   0.08637   0.61940   1.000
    O141    O    0.44706   0.08637   0.11939   1.000
    O142    O    0.45419   0.08597   0.00825   1.000
    O143    O    0.45419   0.08597   0.50824   1.000
loop_
    _geom_bond_atom_site_label_1
    _geom_bond_atom_site_label_2
    _geom_bond_distance
    _geom_bond_site_symmetry_2
    _ccdc_geom_bond_type
    O119   C54       1.44045  1_554   S
    H9     C51       1.11074      .   S
    C51    C45       1.12408      .   S
    C51    C46       1.69371  1_554   S
    H20    C86       1.08927      .   S
    O142   C91       1.29285      .   S
    C86    C83       1.40140      .   S
    C86    C80       1.40143  1_554   S
    C43    C45       1.40063      .   S
    C43    H7        1.08634      .   S
    C43    C58       1.39589  1_554   S
    C45    C49       1.49608      .   S
    C95    C91       1.49751      .   S
    C95    C93       1.39687      .   S
    C95    C78       1.39586  1_554   S
    C91    O141      1.26463      .   S
    C83    C93       1.39835      .   S
    C83    C89       1.49598      .   S
    C93    H23       1.08716      .   S
    O99    C31       1.25053      .   S
    O103   C35       1.25240      .   S
    C49    O111      1.25052      .   S
    C49    O109      1.31034      .   S
    H3     C33       1.08924      .   S
    O139   C89       1.25209      .   S
    C33    C29       1.40181      .   S
    C33    C27       1.40126  1_455   S
    C31    C27       1.49595      .   S
    C31    O97       1.31049      .   S
    C35    C29       1.49585      .   S
    C35    O101      1.30668      .   S
    C89    O137      1.30725      .   S
    C29    C39       1.39844      .   S
    C27    C25       1.40064      .   S
    C39    H5        1.08727      .   S
    C39    C41       1.39702      .   S
    C25    H1        1.08641      .   S
    C25    C41       1.39630  1_655   S
    C41    C37       1.49756      .   S
    C37    O105      1.26445      .   S
    C37    O107      1.29351      .   S
    O131   C73       1.29349      .   S
    O129   C73       1.26447      .   S
    C73    C77       1.49756      .   S
    O113   C53       1.30724      .   S
    C77    C61       1.39631  1_655   S
    C77    C75       1.39702      .   S
    H13    C61       1.08643      .   S
    H17    C75       1.08727      .   S
    C61    C63       1.40064      .   S
    C75    C65       1.39844      .   S
    O121   C67       1.31049      .   S
    O125   C71       1.30666      .   S
    O133   C85       1.31035      .   S
    C63    C67       1.49598      .   S
    C63    C69       1.40126  1_455   S
    C65    C71       1.49581      .   S
    C65    C69       1.40179      .   S
    H11    C57       1.08718      .   S
    C53    O115      1.25208      .   S
    C53    C47       1.49595      .   S
    C71    O127      1.25240      .   S
    C67    O123      1.25050      .   S
    C69    H15       1.08924      .   S
    O135   C85       1.25052      .   S
    O117   C55       1.26464      .   S
    C85    C81       1.49605      .   S
    C57    C47       1.39838      .   S
    C57    C59       1.39686      .   S
    C47    C50       1.40179      .   S
    H19    C79       1.08633      .   S
    C55    C59       1.49753      .   S
    C55    O118      1.29326      .   S
    C59    C42       1.39628      .   S
    C81    C79       1.40062      .   S
    C81    C87       1.40140      .   S
    C79    C94       1.39627      .   S
    C50    H8        1.08926      .   S
    C50    C44       1.40141      .   S
    H21    C87       1.08927      .   S
    O143   C90       1.29325      .   S
    C87    C82       1.40180      .   S
    C42    C44       1.40063      .   S
    C42    H6        1.08633      .   S
    C44    C48       1.49605      .   S
    C94    C90       1.49751      .   S
    C94    C92       1.39687      .   S
    C90    O140      1.26463      .   S
    C82    C92       1.39835      .   S
    C82    C88       1.49596      .   S
    C92    H22       1.08717      .   S
    O98    C30       1.25051      .   S
    O102   C34       1.25240      .   S
    C48    O110      1.25053      .   S
    C48    O108      1.31034      .   S
    H2     C32       1.08924      .   S
    O138   C88       1.25209      .   S
    C32    C28       1.40180      .   S
    C32    C26       1.40126  1_455   S
    C30    C26       1.49597      .   S
    C30    O96       1.31049      .   S
    C34    C28       1.49589      .   S
    C34    O100      1.30668      .   S
    C88    O136      1.30724      .   S
    C28    C38       1.39846      .   S
    C26    C24       1.40063      .   S
    C38    H4        1.08727      .   S
    C38    C40       1.39703      .   S
    C24    H0        1.08643      .   S
    C24    C40       1.39629  1_655   S
    C40    C36       1.49756      .   S
    C36    O104      1.26447      .   S
    C36    O106      1.29349      .   S
    O130   C72       1.29349      .   S
    O128   C72       1.26445      .   S
    C72    C76       1.49758      .   S
    O112   C52       1.30724      .   S
    C76    C60       1.39630  1_655   S
    C76    C74       1.39703      .   S
    H12    C60       1.08643      .   S
    H16    C74       1.08727      .   S
    C60    C62       1.40066      .   S
    C74    C64       1.39846      .   S
    O120   C66       1.31049      .   S
    O124   C70       1.30667      .   S
    O132   C84       1.31033      .   S
    C62    C66       1.49599      .   S
    C62    C68       1.40124  1_455   S
    C64    C70       1.49578      .   S
    C64    C68       1.40179      .   S
    H10    C56       1.08717      .   S
    C52    O114      1.25210      .   S
    C52    C46       1.49597      .   S
    C70    O126      1.25240      .   S
    C66    O122      1.25049      .   S
    C68    H14       1.08926      .   S
    O134   C84       1.25051      .   S
    O116   C54       1.26463      .   S
    C84    C80       1.49607      .   S
    C56    C46       1.39836      .   S
    C56    C58       1.39687      .   S
    H18    C78       1.08634      .   S
    C54    C58       1.49752      .   S
    C80    C78       1.40062      .   S
