# CIF file generated by openbabel 2.4.90, see http://openbabel.sf.net
data_I
_chemical_name_common ''
_cell_length_a 10.063
_cell_length_b 17.5475
_cell_length_c 20.135
_cell_angle_alpha 76.8877
_cell_angle_beta 85.078
_cell_angle_gamma 76.9058
_space_group_name_H-M_alt 'P 1'
_space_group_name_Hall 'P 1'
loop_
    _symmetry_equiv_pos_as_xyz
    x,y,z
loop_
    _atom_site_label
    _atom_site_type_symbol
    _atom_site_fract_x
    _atom_site_fract_y
    _atom_site_fract_z
    _atom_site_occupancy
    Zr0     Zr   0.51057   0.95652   0.59347   1.000
    Zr1     Zr   0.51059   0.95652   0.09346   1.000
    Zr2     Zr   0.81314   0.54382   0.74548   1.000
    Zr3     Zr   0.81316   0.54382   0.24547   1.000
    Zr4     Zr   0.48941   0.04351   0.90653   1.000
    Zr5     Zr   0.48943   0.04350   0.40651   1.000
    Zr6     Zr   0.18684   0.45620   0.75450   1.000
    Zr7     Zr   0.18686   0.45620   0.25449   1.000
    Zr8     Zr   0.57826   0.75028   0.71202   1.000
    Zr9     Zr   0.57828   0.75029   0.21202   1.000
    Zr10    Zr   0.42171   0.24973   0.78796   1.000
    Zr11    Zr   0.42173   0.24973   0.28795   1.000
    N12     N    0.93889   0.20591   0.33847   1.000
    O13     O    0.01189   0.32054   0.30119   1.000
    O14     O    0.15391   0.20352   0.32595   1.000
    O15     O    0.72427   0.20586   0.32609   1.000
    N16     N    0.06113   0.79411   0.16149   1.000
    O17     O    0.27575   0.79417   0.17387   1.000
    O18     O    0.84611   0.79650   0.17402   1.000
    O19     O    0.98813   0.67948   0.19877   1.000
    N20     N    0.32366   0.29437   0.52970   1.000
    O21     O    0.34673   0.29418   0.63697   1.000
    O22     O    0.39773   0.17955   0.49354   1.000
    O23     O    0.34792   0.29638   0.42210   1.000
    N24     N    0.32366   0.29437   0.02970   1.000
    O25     O    0.34790   0.29638   0.92211   1.000
    O26     O    0.39773   0.17955   0.99354   1.000
    O27     O    0.34674   0.29418   0.13696   1.000
    N28     N    0.93887   0.20591   0.83848   1.000
    O29     O    0.72425   0.20586   0.82610   1.000
    O30     O    0.01187   0.32054   0.80120   1.000
    O31     O    0.15389   0.20352   0.82596   1.000
    N32     N    0.67634   0.70565   0.97201   1.000
    O33     O    0.65326   0.70584   0.86388   1.000
    O34     O    0.65208   0.70363   0.07873   1.000
    O35     O    0.60227   0.82047   0.00937   1.000
    N36     N    0.06111   0.79411   0.66150   1.000
    O37     O    0.98811   0.67948   0.69878   1.000
    O38     O    0.84609   0.79650   0.67403   1.000
    O39     O    0.27573   0.79416   0.67388   1.000
    N40     N    0.67634   0.70565   0.47028   1.000
    O41     O    0.65327   0.70584   0.36301   1.000
    O42     O    0.60226   0.82047   0.50644   1.000
    O43     O    0.65207   0.70363   0.57787   1.000
    O44     O    0.89063   0.34247   0.29946   1.000
    O45     O    0.72583   0.63871   0.08251   1.000
    O46     O    0.72621   0.64041   0.37975   1.000
    O47     O    0.27379   0.35962   0.62023   1.000
    O48     O    0.27416   0.36131   0.91833   1.000
    O49     O    0.10937   0.65755   0.70051   1.000
    O50     O    0.89061   0.34247   0.79947   1.000
    O51     O    0.72620   0.64041   0.88062   1.000
    O52     O    0.72582   0.63871   0.58165   1.000
    O53     O    0.27417   0.36131   0.41833   1.000
    O54     O    0.10939   0.65755   0.20050   1.000
    O55     O    0.27380   0.35962   0.12022   1.000
    O56     O    0.40213   0.15786   0.55417   1.000
    O57     O    0.24217   0.85950   0.63700   1.000
    O58     O    0.83841   0.86129   0.63676   1.000
    O59     O    0.75782   0.14053   0.86298   1.000
    O60     O    0.16157   0.13873   0.86323   1.000
    O61     O    0.59786   0.84216   0.94771   1.000
    O62     O    0.16159   0.13873   0.36322   1.000
    O63     O    0.75784   0.14053   0.36297   1.000
    O64     O    0.59787   0.84216   0.44581   1.000
    O65     O    0.83843   0.86129   0.13675   1.000
    O66     O    0.24218   0.85950   0.13699   1.000
    O67     O    0.40213   0.15786   0.05417   1.000
loop_
    _geom_bond_atom_site_label_1
    _geom_bond_atom_site_label_2
    _geom_bond_distance
    _geom_bond_site_symmetry_2
    _ccdc_geom_bond_type
    N12    O13       2.24481  1_655   S
    Zr7    O13       3.20159      .   S
    N12    O14       2.14875  1_655   S
    Zr11   O14       2.97682      .   S
    N12    O15       2.19548      .   S
    Zr11   O15       3.08578      .   S
    N16    O17       2.19547      .   S
    Zr9    O17       3.08572      .   S
    N16    O18       2.14877  1_455   S
    Zr9    O18       2.97688      .   S
    N16    O19       2.24480  1_455   S
    Zr3    O19       3.20159      .   S
    N20    O21       2.19119      .   S
    Zr10   O21       3.07762      .   S
    N20    O22       2.24431      .   S
    Zr5    O22       3.20057      .   S
    N20    O23       2.15233      .   S
    Zr11   O23       2.98363      .   S
    N24    O25       2.15222  1_554   S
    Zr10   O25       2.98353      .   S
    N24    O26       2.24424  1_554   S
    Zr4    O26       3.20045      .   S
    N24    O27       2.19110      .   S
    Zr11   O27       3.07757      .   S
    N28    O29       2.19548      .   S
    Zr10   O29       3.08579      .   S
    N28    O30       2.24480  1_655   S
    Zr6    O30       3.20156      .   S
    N28    O31       2.14874  1_655   S
    Zr10   O31       2.97681      .   S
    N32    O33       2.20846      .   S
    Zr8    O33       3.09422      .   S
    N32    O34       2.13490  1_556   S
    Zr9    O34       2.96699      .   S
    N32    O35       2.25647  1_556   S
    Zr1    O35       3.15994      .   S
    N36    O37       2.24481  1_455   S
    Zr2    O37       3.20162      .   S
    N36    O38       2.14877  1_455   S
    Zr8    O38       2.97689      .   S
    N36    O39       2.19547      .   S
    Zr8    O39       3.08571      .   S
    N40    O41       2.19121      .   S
    Zr9    O41       3.07769      .   S
    N40    O42       2.24435      .   S
    Zr0    O42       3.20062      .   S
    N40    O43       2.15230      .   S
    Zr8    O43       2.98353      .   S
    Zr3    O44       3.38054      .   S
    N12    O44       2.29759      .   S
    Zr3    O45       3.41526      .   S
    N32    O45       2.30593  1_556   S
    Zr3    O46       3.45682      .   S
    N40    O46       2.32696      .   S
    Zr6    O47       3.45674      .   S
    N20    O47       2.32693      .   S
    Zr6    O48       3.43051      .   S
    N24    O48       2.32108  1_554   S
    Zr6    O49       3.38054      .   S
    N36    O49       2.29758      .   S
    Zr2    O50       3.38053      .   S
    N28    O50       2.29758      .   S
    Zr2    O51       3.47192      .   S
    N32    O51       2.34214      .   S
    Zr2    O52       3.43052      .   S
    N40    O52       2.32114      .   S
    Zr7    O53       3.43057      .   S
    N20    O53       2.32116      .   S
    Zr7    O54       3.38054      .   S
    N16    O54       2.29758      .   S
    Zr7    O55       3.45666      .   S
    N24    O55       2.32684      .   S
    Zr0    O56       3.38111  1_565   S
    N20    O56       2.29755      .   S
    Zr0    O57       3.45866      .   S
    N36    O57       2.32710      .   S
    Zr0    O58       3.43082      .   S
    N36    O58       2.32121  1_455   S
    Zr4    O59       3.45866      .   S
    N28    O59       2.32706      .   S
    Zr4    O60       3.43086      .   S
    N28    O60       2.32124  1_655   S
    Zr4    O61       3.38228  1_545   S
    N32    O61       2.29755      .   S
    Zr5    O62       3.43082      .   S
    N12    O62       2.32123  1_655   S
    Zr5    O63       3.45867      .   S
    N12    O63       2.32707      .   S
    Zr5    O64       3.38112  1_545   S
    N40    O64       2.29757      .   S
    Zr1    O65       3.43084      .   S
    N16    O65       2.32122  1_455   S
    Zr1    O66       3.45864      .   S
    N16    O66       2.32709      .   S
    Zr1    O67       3.38113  1_565   S
    N24    O67       2.29755      .   S
