# CIF file generated by openbabel 2.4.90, see http://openbabel.sf.net
data_I
_chemical_name_common ''
_cell_length_a 23.416
_cell_length_b 15.734
_cell_length_c 18.046
_cell_angle_alpha 88.64
_cell_angle_beta 89.846
_cell_angle_gamma 90.01
_space_group_name_H-M_alt 'P 1'
_space_group_name_Hall 'P 1'
loop_
    _symmetry_equiv_pos_as_xyz
    x,y,z
loop_
    _atom_site_label
    _atom_site_type_symbol
    _atom_site_fract_x
    _atom_site_fract_y
    _atom_site_fract_z
    _atom_site_occupancy
    Zn0     Zn   0.62993   0.50712   0.78374   1.000
    Zn1     Zn   0.12992   0.50237   0.93789   1.000
    Zn2     Zn   0.62992   0.50283   0.93836   1.000
    Zn3     Zn   0.37844   0.49259   0.21830   1.000
    Zn4     Zn   0.87844   0.49256   0.21826   1.000
    Zn5     Zn   0.37986   0.49676   0.06270   1.000
    Zn6     Zn   0.87976   0.49678   0.06261   1.000
    Zn7     Zn   0.12994   0.50710   0.78280   1.000
loop_
    _geom_bond_atom_site_label_1
    _geom_bond_atom_site_label_2
    _geom_bond_distance
    _geom_bond_site_symmetry_2
    _ccdc_geom_bond_type
    Zn7    Zn1       2.79798      .   S
    Zn0    Zn2       2.78949      .   S
    Zn3    Zn5       2.80727      .   S
    Zn4    Zn6       2.80815      .   S
