# CIF file generated by openbabel 2.4.90, see http://openbabel.sf.net
data_I
_chemical_name_common ''
_cell_length_a 17.215
_cell_length_b 17.395
_cell_length_c 18.482
_cell_angle_alpha 90.039
_cell_angle_beta 90.019
_cell_angle_gamma 90.14
_space_group_name_H-M_alt 'P 1'
_space_group_name_Hall 'P 1'
loop_
    _symmetry_equiv_pos_as_xyz
    x,y,z
loop_
    _atom_site_label
    _atom_site_type_symbol
    _atom_site_fract_x
    _atom_site_fract_y
    _atom_site_fract_z
    _atom_site_occupancy
    H0      H    0.60384   0.94376   0.62142   1.000
    H1      H    0.47384   0.03860   0.62785   1.000
    H2      H    0.64243   0.13557   0.48696   1.000
    H3      H    0.38825   0.10214   0.54102   1.000
    H4      H    0.30222   0.21503   0.52218   1.000
    H5      H    0.50143   0.36407   0.51497   1.000
    H6      H    0.58818   0.25330   0.53814   1.000
    H7      H    0.70783   0.06314   0.35977   1.000
    H8      H    0.70138   0.97848   0.23232   1.000
    H9      H    0.79438   0.84170   0.40243   1.000
    H10     H    0.73564   0.74060   0.33840   1.000
    H11     H    0.75264   0.63067   0.25405   1.000
    H12     H    0.78545   0.78649   0.07687   1.000
    H13     H    0.77493   0.89763   0.16069   1.000
    H14     H    0.10472   0.55692   0.37828   1.000
    H15     H    0.97445   0.46189   0.37201   1.000
    H16     H    0.14302   0.36509   0.51260   1.000
    H17     H    0.88876   0.39801   0.45870   1.000
    H18     H    0.80253   0.28488   0.47753   1.000
    H19     H    0.00139   0.13632   0.48433   1.000
    H20     H    0.08835   0.24735   0.46130   1.000
    H21     H    0.20868   0.43723   0.63973   1.000
    H22     H    0.20149   0.52180   0.76713   1.000
    H23     H    0.29502   0.65926   0.59740   1.000
    H24     H    0.23563   0.76019   0.66182   1.000
    H25     H    0.25161   0.86985   0.74674   1.000
    H26     H    0.28512   0.71346   0.92326   1.000
    H27     H    0.27511   0.60266   0.83896   1.000
    H28     H    0.10378   0.94350   0.87892   1.000
    H29     H    0.97384   0.03836   0.87225   1.000
    H30     H    0.14244   0.13575   0.01311   1.000
    H31     H    0.88826   0.10219   0.95881   1.000
    H32     H    0.80224   0.21511   0.97756   1.000
    H33     H    0.00143   0.36417   0.98477   1.000
    H34     H    0.08817   0.25335   0.96174   1.000
    H35     H    0.20701   0.06271   0.14066   1.000
    H36     H    0.20084   0.97801   0.26798   1.000
    H37     H    0.29436   0.84157   0.09777   1.000
    H38     H    0.23550   0.74029   0.16165   1.000
    H39     H    0.25251   0.63041   0.24596   1.000
    H40     H    0.28550   0.78637   0.42321   1.000
    H41     H    0.27489   0.89745   0.33945   1.000
    H42     H    0.60477   0.55724   0.12153   1.000
    H43     H    0.47448   0.46222   0.12787   1.000
    H44     H    0.64295   0.36513   0.98727   1.000
    H45     H    0.38867   0.39804   0.04126   1.000
    H46     H    0.30248   0.28476   0.02289   1.000
    H47     H    0.50144   0.13631   0.01627   1.000
    H48     H    0.58839   0.24752   0.03867   1.000
    H49     H    0.70827   0.43748   0.85994   1.000
    H50     H    0.70122   0.52204   0.73264   1.000
    H51     H    0.79514   0.65933   0.90245   1.000
    H52     H    0.73561   0.76037   0.83814   1.000
    H53     H    0.75157   0.86996   0.75326   1.000
    H54     H    0.78524   0.71341   0.57672   1.000
    H55     H    0.77521   0.60269   0.66097   1.000
    H56     H    0.89623   0.05648   0.12105   1.000
    H57     H    0.02617   0.96162   0.12773   1.000
    H58     H    0.85757   0.86424   0.98686   1.000
    H59     H    0.11175   0.89779   0.04117   1.000
    H60     H    0.19777   0.78487   0.02242   1.000
    H61     H    0.99858   0.63582   0.01518   1.000
    H62     H    0.91184   0.74664   0.03822   1.000
    H63     H    0.79299   0.93726   0.85931   1.000
    H64     H    0.79917   0.02196   0.73190   1.000
    H65     H    0.70566   0.15842   0.90219   1.000
    H66     H    0.76458   0.25968   0.83831   1.000
    H67     H    0.74759   0.36957   0.75401   1.000
    H68     H    0.71450   0.21362   0.57676   1.000
    H69     H    0.72510   0.10254   0.66051   1.000
    H70     H    0.39524   0.44275   0.87840   1.000
    H71     H    0.52553   0.53776   0.87210   1.000
    H72     H    0.35705   0.63486   0.01269   1.000
    H73     H    0.61133   0.60195   0.95871   1.000
    H74     H    0.69752   0.71522   0.97708   1.000
    H75     H    0.49857   0.86368   0.98370   1.000
    H76     H    0.41161   0.75247   0.96130   1.000
    H77     H    0.29178   0.56249   0.14002   1.000
    H78     H    0.29883   0.47793   0.26732   1.000
    H79     H    0.20485   0.34066   0.09751   1.000
    H80     H    0.26438   0.23960   0.16180   1.000
    H81     H    0.24840   0.13002   0.24670   1.000
    H82     H    0.21478   0.28657   0.42325   1.000
    H83     H    0.22482   0.39729   0.33899   1.000
    H84     H    0.39615   0.05622   0.37855   1.000
    H85     H    0.52615   0.96139   0.37212   1.000
    H86     H    0.35756   0.86441   0.51300   1.000
    H87     H    0.61174   0.89785   0.45894   1.000
    H88     H    0.69778   0.78497   0.47778   1.000
    H89     H    0.49857   0.63592   0.48501   1.000
    H90     H    0.41182   0.74669   0.46180   1.000
    H91     H    0.29220   0.93687   0.64021   1.000
    C92     C    0.90831   0.00289   0.09338   1.000
    C93     C    0.97276   0.95695   0.09711   1.000
    C94     C    0.88551   0.90416   0.02363   1.000
    H95     H    0.29863   0.02152   0.76767   1.000
    H96     H    0.20564   0.15830   0.59755   1.000
    H97     H    0.26436   0.25939   0.66158   1.000
    H98     H    0.24736   0.36932   0.74592   1.000
    H99     H    0.21456   0.21351   0.92311   1.000
    H100    H    0.22507   0.10237   0.83929   1.000
    H101    H    0.89529   0.44306   0.62164   1.000
    H102    H    0.02556   0.53809   0.62793   1.000
    H103    H    0.85701   0.63491   0.48732   1.000
    H104    H    0.11127   0.60199   0.54122   1.000
    H105    H    0.19750   0.71513   0.52240   1.000
    H106    H    0.99863   0.86369   0.51573   1.000
    H107    H    0.91167   0.75265   0.53869   1.000
    H108    H    0.79131   0.56275   0.36023   1.000
    H109    H    0.79851   0.47819   0.23280   1.000
    H110    H    0.70497   0.34073   0.40249   1.000
    H111    H    0.76438   0.23980   0.33815   1.000
    H112    H    0.74840   0.13013   0.25322   1.000
    H113    H    0.71488   0.28652   0.07670   1.000
    H114    H    0.72489   0.39732   0.16101   1.000
    C115    C    0.59174   0.99726   0.59360   1.000
    C116    C    0.52727   0.04319   0.59726   1.000
    C117    C    0.61451   0.09576   0.52375   1.000
    C118    C    0.49319   0.17071   0.54107   1.000
    C119    C    0.41282   0.15973   0.53716   1.000
    C120    C    0.36474   0.22296   0.52689   1.000
    C121    C    0.39628   0.29679   0.51910   1.000
    C122    C    0.47707   0.30664   0.52100   1.000
    C123    C    0.22691   0.29857   0.83921   1.000
    C124    C    0.22283   0.22313   0.86547   1.000
    C125    C    0.23045   0.16080   0.81880   1.000
    C126    C    0.90743   0.49661   0.59389   1.000
    C127    C    0.52574   0.24410   0.53345   1.000
    C128    C    0.72352   0.00000   0.34929   1.000
    C129    C    0.71993   0.96248   0.28628   1.000
    C130    C    0.76877   0.89006   0.37447   1.000
    C131    C    0.75605   0.82609   0.25478   1.000
    C132    C    0.74936   0.75107   0.28166   1.000
    C133    C    0.75850   0.68937   0.23451   1.000
    C134    C    0.77310   0.70142   0.16070   1.000
    C135    C    0.77718   0.77686   0.13451   1.000
    C136    C    0.76955   0.83920   0.18119   1.000
    C137    C    0.09258   0.50338   0.40604   1.000
    C138    C    0.02792   0.45737   0.40251   1.000
    C139    C    0.11515   0.40487   0.47587   1.000
    C140    C    0.99357   0.32971   0.45857   1.000
    C141    C    0.91323   0.34049   0.46252   1.000
    C142    C    0.86503   0.27712   0.47277   1.000
    C143    C    0.89642   0.20338   0.48049   1.000
    C144    C    0.97717   0.19370   0.47804   1.000
    C145    C    0.02594   0.25639   0.46603   1.000
    C146    C    0.22425   0.49657   0.65029   1.000
    C147    C    0.22031   0.53795   0.71328   1.000
    C148    C    0.26939   0.61070   0.62531   1.000
    C149    C    0.25610   0.67447   0.74513   1.000
    C150    C    0.24921   0.74957   0.71856   1.000
    C151    C    0.25779   0.81113   0.76605   1.000
    C152    C    0.27232   0.79886   0.83978   1.000
    C153    C    0.27683   0.72331   0.86566   1.000
    C154    C    0.26957   0.66114   0.81869   1.000
    C155    C    0.09170   0.99710   0.90600   1.000
    C156    C    0.02724   0.04304   0.90286   1.000
    C157    C    0.11450   0.09582   0.97634   1.000
    C158    C    0.99321   0.17075   0.95882   1.000
    C159    C    0.91284   0.15978   0.96268   1.000
    C160    C    0.86476   0.22304   0.97289   1.000
    C161    C    0.89629   0.29688   0.98069   1.000
    C162    C    0.97708   0.30673   0.97839   1.000
    C163    C    0.02573   0.24415   0.96640   1.000
    C164    C    0.22292   0.00000   0.15107   1.000
    C165    C    0.21945   0.96210   0.21401   1.000
    C166    C    0.26854   0.88984   0.12577   1.000
    C167    C    0.25593   0.82582   0.24535   1.000
    C168    C    0.24924   0.75079   0.21840   1.000
    C169    C    0.25839   0.68913   0.26552   1.000
    C170    C    0.27305   0.70125   0.33927   1.000
    C171    C    0.27716   0.77671   0.36557   1.000
    C172    C    0.26950   0.83900   0.31894   1.000
    C173    C    0.59260   0.50364   0.09380   1.000
    C174    C    0.52794   0.45764   0.09735   1.000
    C175    C    0.61510   0.40499   0.02401   1.000
    C176    C    0.49354   0.32982   0.04147   1.000
    C177    C    0.41318   0.34052   0.03759   1.000
    C178    C    0.36499   0.27706   0.02763   1.000
    C179    C    0.39639   0.20328   0.02019   1.000
    C180    C    0.47717   0.19370   0.02246   1.000
    C181    C    0.52596   0.25650   0.03409   1.000
    C182    C    0.72399   0.49678   0.84946   1.000
    C183    C    0.72010   0.53815   0.78652   1.000
    C184    C    0.76940   0.61082   0.87457   1.000
    C185    C    0.75615   0.67458   0.75481   1.000
    C186    C    0.74919   0.74970   0.78100   1.000
    C187    C    0.75779   0.81121   0.73394   1.000
    C188    C    0.77234   0.79888   0.66020   1.000
    C189    C    0.77691   0.72331   0.63432   1.000
    C190    C    0.76962   0.66119   0.68125   1.000
    C191    C    0.00680   0.82924   0.04115   1.000
    C192    C    0.08717   0.84021   0.03730   1.000
    C193    C    0.13525   0.77695   0.02700   1.000
    C194    C    0.10371   0.70311   0.01928   1.000
    C195    C    0.02292   0.69326   0.02150   1.000
    C196    C    0.97428   0.75583   0.03356   1.000
    C197    C    0.77708   0.99645   0.84890   1.000
    C198    C    0.78055   0.03788   0.78595   1.000
    C199    C    0.73147   0.11014   0.87420   1.000
    C200    C    0.74410   0.17416   0.75461   1.000
    C201    C    0.75082   0.24919   0.78156   1.000
    C202    C    0.74167   0.31085   0.73444   1.000
    C203    C    0.72700   0.29874   0.66069   1.000
    C204    C    0.72285   0.22328   0.63440   1.000
    C205    C    0.73051   0.16098   0.68103   1.000
    C206    C    0.40740   0.49635   0.90617   1.000
    C207    C    0.47206   0.54235   0.90262   1.000
    C208    C    0.38490   0.59500   0.97595   1.000
    C209    C    0.50646   0.67017   0.95849   1.000
    C210    C    0.58682   0.65946   0.96238   1.000
    C211    C    0.63501   0.72292   0.97234   1.000
    C212    C    0.60361   0.79671   0.97978   1.000
    C213    C    0.52284   0.80629   0.97751   1.000
    C214    C    0.47404   0.74350   0.96588   1.000
    C215    C    0.27605   0.50319   0.15050   1.000
    C216    C    0.27994   0.46181   0.21344   1.000
    C217    C    0.23061   0.38917   0.12500   1.000
    C218    C    0.24386   0.32540   0.24515   1.000
    C219    C    0.25081   0.25028   0.21857   1.000
    C220    C    0.24219   0.18876   0.26602   1.000
    C221    C    0.22766   0.20110   0.33975   1.000
    C222    C    0.22309   0.27668   0.36564   1.000
    C223    C    0.23040   0.33879   0.31870   1.000
    C224    C    0.40825   0.00273   0.40632   1.000
    C225    C    0.47272   0.95680   0.40270   1.000
    C226    C    0.38548   0.90423   0.47621   1.000
    C227    C    0.50681   0.82928   0.45890   1.000
    C228    C    0.58718   0.84027   0.46280   1.000
    C229    C    0.63526   0.77703   0.47307   1.000
    C230    C    0.60372   0.70321   0.48087   1.000
    C231    C    0.52293   0.69335   0.47858   1.000
    C232    C    0.47426   0.75589   0.46652   1.000
    C233    C    0.27650   0.99610   0.65000   1.000
    C234    C    0.28008   0.03751   0.71370   1.000
    C235    C    0.23126   0.10994   0.62550   1.000
    C236    C    0.24395   0.17390   0.74521   1.000
    C237    C    0.25064   0.24892   0.71832   1.000
    C238    C    0.24151   0.31062   0.76546   1.000
    C239    C    0.97210   0.54262   0.59740   1.000
    C240    C    0.88487   0.59513   0.52407   1.000
    C241    C    0.00645   0.67028   0.54140   1.000
    C242    C    0.08679   0.65951   0.53746   1.000
    C243    C    0.13500   0.72288   0.52724   1.000
    C244    C    0.10360   0.79663   0.51955   1.000
    C245    C    0.02285   0.80630   0.52199   1.000
    C246    C    0.97408   0.74361   0.53397   1.000
    C247    C    0.77574   0.50341   0.34967   1.000
    C248    C    0.77969   0.46203   0.28660   1.000
    C249    C    0.73060   0.38928   0.37465   1.000
    C250    C    0.74389   0.32552   0.25484   1.000
    C251    C    0.75080   0.25042   0.28140   1.000
    C252    C    0.74221   0.18886   0.23392   1.000
    C253    C    0.72768   0.20113   0.16018   1.000
    C254    C    0.72317   0.27668   0.13431   1.000
    C255    C    0.73043   0.33884   0.18120   1.000
    N256    N    0.64563   0.03049   0.54749   1.000
    N257    N    0.54249   0.10605   0.55290   1.000
    N258    N    0.75403   0.95825   0.40365   1.000
    N259    N    0.74858   0.88976   0.30289   1.000
    N260    N    0.14646   0.47019   0.45209   1.000
    N261    N    0.04302   0.39451   0.44680   1.000
    N262    N    0.25492   0.54241   0.59605   1.000
    N263    N    0.24891   0.61087   0.69682   1.000
    N264    N    0.14560   0.03046   0.95273   1.000
    N265    N    0.04249   0.10604   0.94713   1.000
    N266    N    0.25358   0.95798   0.09667   1.000
    N267    N    0.24834   0.88948   0.19732   1.000
    N268    N    0.64644   0.47036   0.04775   1.000
    N269    N    0.54300   0.39469   0.05306   1.000
    N270    N    0.75479   0.54255   0.90376   1.000
    N271    N    0.74886   0.61101   0.80306   1.000
    N272    N    0.85441   0.96952   0.04724   1.000
    N273    N    0.95752   0.89394   0.05284   1.000
    N274    N    0.74642   0.04200   0.90330   1.000
    N275    N    0.75168   0.11050   0.80264   1.000
    N276    N    0.35356   0.52963   0.95222   1.000
    N277    N    0.45700   0.60530   0.94690   1.000
    N278    N    0.24522   0.45743   0.09621   1.000
    N279    N    0.25116   0.38897   0.19690   1.000
    N280    N    0.35437   0.96950   0.45248   1.000
    N281    N    0.45750   0.89393   0.44707   1.000
    N282    N    0.24600   0.04175   0.59633   1.000
    N283    N    0.25144   0.11023   0.69700   1.000
    N284    N    0.85356   0.52980   0.54783   1.000
    N285    N    0.95700   0.60548   0.55311   1.000
    N286    N    0.74507   0.45758   0.40391   1.000
    N287    N    0.75109   0.38912   0.30315   1.000
loop_
    _geom_bond_atom_site_label_1
    _geom_bond_atom_site_label_2
    _geom_bond_distance
    _geom_bond_site_symmetry_2
    _ccdc_geom_bond_type
    H72    C208      1.08302  1_554   S
    H30    C157      1.08306  1_554   S
    H61    C195      1.08882  1_655   S
    H47    C180      1.08911      .   S
    C194   C195      1.40150      .   S
    C194   C193      1.40041      .   S
    C179   C180      1.40155      .   S
    C179   C178      1.40061      .   S
    C195   C196      1.39284  1_455   S
    H60    C193      1.08809      .   S
    C180   C181      1.39280      .   S
    H46    C178      1.08820      .   S
    C94    N272      1.33121      .   S
    C94    N273      1.36404      .   S
    C94    H58       1.08304  1_554   S
    C175   N268      1.33147      .   S
    C175   N269      1.36409      .   S
    C175   H44       1.08300  1_554   S
    C193   C192      1.39151      .   S
    C178   C177      1.39136      .   S
    C196   H62       1.08981      .   S
    C196   C191      1.39996  1_655   S
    C181   H48       1.08974      .   S
    C181   C176      1.40014      .   S
    C192   C191      1.39802      .   S
    C192   H59       1.08877      .   S
    C177   H45       1.08882      .   S
    C177   C176      1.39811      .   S
    C191   N273      1.42743  1_455   S
    C176   N269      1.42791      .   S
    N272   C92       1.38603  1_565   S
    N268   C173      1.38600      .   S
    N273   C93       1.39166      .   S
    N269   C174      1.39164      .   S
    H113   C254      1.08795      .   S
    H12    C135      1.08785      .   S
    C92    C93       1.37076  1_545   S
    C92    H56       1.08355      .   S
    C173   C174      1.37092      .   S
    C173   H42       1.08359      .   S
    N278   C217      1.32505      .   S
    N278   C215      1.38517      .   S
    N266   C166      1.32769      .   S
    N266   C164      1.35091  1_565   S
    C93    H57       1.08232  1_655   S
    C174   H43       1.08267      .   S
    H79    C217      1.07900      .   S
    H37    C166      1.08245      .   S
    C217   N279      1.37502      .   S
    C166   N267      1.36751      .   S
    C254   C253      1.40111      .   S
    C254   C255      1.39070      .   S
    C135   C134      1.40064      .   S
    C135   C136      1.39171      .   S
    H77    C215      1.08338      .   S
    H35    C164      1.14185      .   S
    C215   C216      1.37008      .   S
    C164   C165      1.33877  1_545   S
    C253   C252      1.40210      .   S
    H13    C136      1.08869      .   S
    C134   C133      1.40300      .   S
    H114   C255      1.08816      .   S
    H38    C168      1.09034      .   S
    H80    C219      1.09091      .   S
    C136   C131      1.39864      .   S
    C255   C250      1.40006      .   S
    N279   C216      1.39323      .   S
    N279   C218      1.42630      .   S
    N267   C165      1.39315      .   S
    N267   C167      1.42582      .   S
    C216   H78       1.08392      .   S
    C165   H36       1.08377      .   S
    C168   C167      1.40114      .   S
    C168   C169      1.39128      .   S
    C219   C218      1.40114      .   S
    C219   C220      1.39166      .   S
    H8     C129      1.08378      .   S
    H109   C248      1.08297      .   S
    C252   H112      1.08774      .   S
    C252   C251      1.39160      .   S
    C133   H11       1.08775      .   S
    C133   C132      1.39128      .   S
    C218   C223      1.39851      .   S
    C167   C172      1.39858      .   S
    H39    C169      1.08772      .   S
    H81    C220      1.08778      .   S
    C131   C132      1.40110      .   S
    C131   N259      1.42594      .   S
    C250   C251      1.40116      .   S
    C250   N287      1.42630      .   S
    C169   C170      1.40183      .   S
    C220   C221      1.40201      .   S
    C251   H111      1.09051      .   S
    C132   H10       1.09035      .   S
    C129   N259      1.39326      .   S
    C129   C128      1.33589  1_565   S
    C248   N287      1.39365      .   S
    C248   C247      1.37139      .   S
    N259   C130      1.36772      .   S
    N287   C249      1.36786      .   S
    C223   H83       1.08872      .   S
    C223   C222      1.39166      .   S
    C172   H41       1.08858      .   S
    C172   C171      1.39146      .   S
    C170   C171      1.40098      .   S
    C221   C222      1.40104      .   S
    C128   H7        1.14799      .   S
    C128   N258      1.34729  1_545   S
    C247   H108      1.08337      .   S
    C247   N286      1.38518      .   S
    C171   H40       1.08777      .   S
    C222   H82       1.08802      .   S
    H15    C138      1.08229  1_655   S
    H85    C225      1.08253      .   S
    C130   H9        1.08236      .   S
    C130   N258      1.32775      .   S
    C249   H110      1.08245      .   S
    C249   N286      1.32796      .   S
    H14    C137      1.08363      .   S
    H84    C224      1.08356      .   S
    C138   C137      1.37094      .   S
    C138   N261      1.39132      .   S
    C225   C224      1.37078  1_565   S
    C225   N281      1.39174      .   S
    C137   N260      1.38593      .   S
    C224   N280      1.38601  1_545   S
    N261   C140      1.42762  1_455   S
    N261   C139      1.36424      .   S
    N281   C227      1.42763      .   S
    N281   C226      1.36400      .   S
    N260   C139      1.33147      .   S
    N280   C226      1.33112      .   S
    C140   C141      1.39809      .   S
    C140   C145      1.39993  1_655   S
    H17    C141      1.08886      .   S
    C227   C228      1.39800      .   S
    C227   C232      1.40008      .   S
    H87    C228      1.08879      .   S
    H20    C145      1.08975      .   S
    H90    C232      1.08984      .   S
    C141   C142      1.39127      .   S
    C228   C229      1.39130      .   S
    C145   C144      1.39256  1_455   S
    C232   C231      1.39288      .   S
    C142   H18       1.08823      .   S
    C142   C143      1.40056      .   S
    C229   H88       1.08824      .   S
    C229   C230      1.40056      .   S
    C139   H16       1.08250      .   S
    C226   H86       1.08271      .   S
    C144   C143      1.40144      .   S
    C144   H19       1.08896  1_655   S
    C231   C230      1.40152      .   S
    C231   H89       1.08911      .   S
    H2     C117      1.08270      .   S
    H103   C240      1.08273      .   S
    H5     C122      1.08834      .   S
    H106   C245      1.08895  1_655   S
    C121   C122      1.40132      .   S
    C121   C120      1.40055      .   S
    C244   C245      1.40145      .   S
    C244   C243      1.40056      .   S
    C122   C127      1.39404      .   S
    C245   C246      1.39255  1_455   S
    H4     C120      1.08825      .   S
    H105   C243      1.08837      .   S
    C117   N256      1.33121      .   S
    C117   N257      1.36406      .   S
    C240   N284      1.33138      .   S
    C240   N285      1.36399      .   S
    C120   C119      1.39131      .   S
    C243   C242      1.39124      .   S
    C127   H6        1.08979      .   S
    C127   C118      1.40008      .   S
    C246   H107      1.08977      .   S
    C246   C241      1.39994  1_655   S
    C119   H3        1.08879      .   S
    C119   C118      1.39802      .   S
    C242   H104      1.08882      .   S
    C242   C241      1.39812      .   S
    C118   N257      1.42764      .   S
    C241   N285      1.42751  1_455   S
    N256   C115      1.38545  1_545   S
    N284   C126      1.38601      .   S
    N257   C116      1.39162      .   S
    N285   C239      1.39136      .   S
    H54    C189      1.08785      .   S
    H68    C204      1.08780      .   S
    C115   C116      1.37082  1_565   S
    C115   H0        1.08400      .   S
    C126   C239      1.37091      .   S
    C126   H101      1.08357      .   S
    N262   C148      1.32796      .   S
    N262   C146      1.38517      .   S
    N282   C235      1.32766      .   S
    N282   C233      1.37588  1_545   S
    C116   H1        1.08263      .   S
    H23    C148      1.08306      .   S
    C239   H102      1.08252  1_655   S
    H96    C235      1.08229      .   S
    C148   N263      1.36801      .   S
    C235   N283      1.36625      .   S
    C189   C188      1.40097      .   S
    C189   C190      1.39157      .   S
    C204   C203      1.40095      .   S
    C204   C205      1.39150      .   S
    H21    C146      1.08338      .   S
    H91    C233      1.08106      .   S
    C233   C234      1.38105  1_565   S
    C146   C147      1.37011      .   S
    C188   C187      1.40221      .   S
    H69    C205      1.08864      .   S
    C203   C202      1.40189      .   S
    H55    C190      1.08864      .   S
    H97    C237      1.09034      .   S
    H24    C150      1.09034      .   S
    C205   C200      1.39844      .   S
    C190   C185      1.39872      .   S
    N263   C147      1.39330      .   S
    N263   C149      1.42630      .   S
    N283   C234      1.39361      .   S
    N283   C236      1.42710      .   S
    C147   H22       1.08380      .   S
    C234   H95       1.08393      .   S
    C237   C236      1.40114      .   S
    C237   C238      1.39118      .   S
    C150   C149      1.40122      .   S
    C150   C151      1.39170      .   S
    H64    C198      1.08514      .   S
    H50    C183      1.08388      .   S
    C187   H53       1.08779      .   S
    C187   C186      1.38714      .   S
    C202   H67       1.08778      .   S
    C202   C201      1.39134      .   S
    C149   C154      1.39867      .   S
    C236   C125      1.39865      .   S
    H98    C238      1.08774      .   S
    H25    C151      1.08778      .   S
    C200   C201      1.40114      .   S
    C200   N275      1.42583      .   S
    C185   C186      1.39862      .   S
    C185   N271      1.42630      .   S
    C238   C123      1.40192      .   S
    C151   C152      1.40194      .   S
    C186   H52       1.09751      .   S
    C201   H66       1.09039      .   S
    C198   N275      1.39317      .   S
    C198   C197      1.37020  1_545   S
    C183   N271      1.39323      .   S
    C183   C182      1.37005      .   S
    N275   C199      1.36770      .   S
    N271   C184      1.36800      .   S
    C154   H27       1.08866      .   S
    C154   C153      1.39160      .   S
    C125   H100      1.08861      .   S
    C125   C124      1.39162      .   S
    C123   C124      1.40106      .   S
    C152   C153      1.40117      .   S
    C197   H63       1.08330      .   S
    C197   N274      1.38514  1_565   S
    C182   H49       1.08337      .   S
    C182   N270      1.38525      .   S
    C124   H99       1.08784      .   S
    C153   H26       1.08778      .   S
    H71    C207      1.08270      .   S
    H29    C156      1.08221  1_655   S
    C199   H65       1.08239      .   S
    C199   N274      1.32767      .   S
    C184   H51       1.08238      .   S
    C184   N270      1.32805      .   S
    H70    C206      1.08395      .   S
    H28    C155      1.07848      .   S
    C207   C206      1.37090      .   S
    C207   N277      1.39155      .   S
    C156   C155      1.37026  1_545   S
    C156   N265      1.39170      .   S
    C155   N264      1.39279  1_565   S
    C206   N276      1.38604      .   S
    N277   C209      1.42791      .   S
    N277   C208      1.36409      .   S
    N265   C158      1.42744  1_455   S
    N265   C157      1.36404      .   S
    N276   C208      1.33141      .   S
    N264   C157      1.33122      .   S
    C209   C210      1.39812      .   S
    C209   C214      1.40016      .   S
    H73    C210      1.08884      .   S
    H31    C159      1.08879      .   S
    C158   C159      1.39801      .   S
    C158   C163      1.39994  1_655   S
    H76    C214      1.08974      .   S
    H34    C163      1.08980      .   S
    C210   C211      1.39134      .   S
    C159   C160      1.39130      .   S
    C214   C213      1.39281      .   S
    C163   C162      1.39265  1_455   S
    C211   H74       1.08820      .   S
    C211   C212      1.40061      .   S
    C160   H32       1.08822      .   S
    C160   C161      1.40056      .   S
    C213   C212      1.40153      .   S
    C213   H75       1.08911      .   S
    C162   C161      1.40154      .   S
    C162   H33       1.08894  1_655   S
