# CIF file generated by openbabel 2.4.90, see http://openbabel.sf.net
data_I
_chemical_name_common ''
_cell_length_a 17.215
_cell_length_b 17.395
_cell_length_c 18.482
_cell_angle_alpha 90.039
_cell_angle_beta 90.019
_cell_angle_gamma 90.14
_space_group_name_H-M_alt 'P 1'
_space_group_name_Hall 'P 1'
loop_
    _symmetry_equiv_pos_as_xyz
    x,y,z
loop_
    _atom_site_label
    _atom_site_type_symbol
    _atom_site_fract_x
    _atom_site_fract_y
    _atom_site_fract_z
    _atom_site_occupancy
    C0      C    0.78086   0.86561   0.60952   1.000
    C1      C    0.21796   0.36563   0.88945   1.000
    C2      C    0.34333   0.36430   0.50912   1.000
    C3      C    0.78204   0.63437   0.11052   1.000
    C4      C    0.84333   0.13578   0.49068   1.000
    C5      C    0.28081   0.86562   0.89053   1.000
    C6      C    0.84333   0.36438   0.99073   1.000
    C7      C    0.28203   0.63427   0.38900   1.000
    C8      C    0.34332   0.13556   0.01039   1.000
    C9      C    0.15668   0.63561   0.00920   1.000
    C10     C    0.71800   0.36572   0.61047   1.000
    C11     C    0.65668   0.86442   0.98958   1.000
    C12     C    0.21914   0.13438   0.39045   1.000
    C13     C    0.65667   0.63570   0.49086   1.000
    C14     C    0.15669   0.86422   0.50935   1.000
    C15     C    0.71919   0.13436   0.10944   1.000
