# CIF file generated by openbabel 2.4.90, see http://openbabel.sf.net
data_I
_chemical_name_common 'VESTA_phase_1'
_cell_length_a 13.968
_cell_length_b 15.512
_cell_length_c 19.523
_cell_angle_alpha 90
_cell_angle_beta 102.061
_cell_angle_gamma 90
_space_group_name_H-M_alt 'P 1'
_space_group_name_Hall 'P 1'
loop_
    _symmetry_equiv_pos_as_xyz
    x,y,z
loop_
    _atom_site_label
    _atom_site_type_symbol
    _atom_site_fract_x
    _atom_site_fract_y
    _atom_site_fract_z
    _atom_site_occupancy
    Cd0     Cd   0.99994   0.00000   0.99998   1.000
    Cd1     Cd   0.99995   0.99999   0.49997   1.000
    Cd2     Cd   0.99994   0.49999   0.99998   1.000
    Cd3     Cd   0.99994   0.50000   0.49997   1.000
    Cd4     Cd   0.49995   0.99999   0.99999   1.000
    Cd5     Cd   0.49995   0.00000   0.49998   1.000
    Cd6     Cd   0.49995   0.49999   0.49998   1.000
    Cd7     Cd   0.49995   0.50001   0.99999   1.000
    Ni8     Ni   0.24957   0.25000   0.99989   1.000
    Ni9     Ni   0.24954   0.25000   0.49980   1.000
    Ni10    Ni   0.24955   0.74999   0.99987   1.000
    Ni11    Ni   0.24956   0.75000   0.49988   1.000
    Ni12    Ni   0.75027   0.24999   0.00000   1.000
    Ni13    Ni   0.75030   0.25000   0.50006   1.000
    Ni14    Ni   0.75028   0.75000   0.70000   1.000
    Ni15    Ni   0.75025   0.75000   0.50005   1.000
    H16     H    0.00610   0.05285   0.13725   1.000
    H17     H    0.00610   0.05284   0.63724   1.000
    H18     H    0.00609   0.55285   0.13724   1.000
    H19     H    0.00609   0.55285   0.63724   1.000
    H20     H    0.50623   0.05285   0.13728   1.000
    H21     H    0.50623   0.05285   0.63727   1.000
    H22     H    0.50623   0.55285   0.13728   1.000
    H23     H    0.50623   0.55284   0.63727   1.000
    H24     H    0.32979   0.05660   0.09734   1.000
    H25     H    0.32979   0.05659   0.59733   1.000
    H26     H    0.32979   0.55660   0.09734   1.000
    H27     H    0.32979   0.55659   0.59734   1.000
    H28     H    0.82964   0.05659   0.09737   1.000
    H29     H    0.82965   0.05659   0.59736   1.000
    H30     H    0.82964   0.55659   0.09737   1.000
    H31     H    0.82964   0.55659   0.59736   1.000
    H32     H    0.39817   0.05699   0.22766   1.000
    H33     H    0.39817   0.05698   0.72765   1.000
    H34     H    0.39817   0.55698   0.22766   1.000
    H35     H    0.39817   0.55698   0.72765   1.000
    H36     H    0.89808   0.05698   0.22768   1.000
    H37     H    0.89808   0.05698   0.72767   1.000
    H38     H    0.89807   0.55698   0.22768   1.000
    H39     H    0.89807   0.55698   0.72767   1.000
    H40     H    0.21536   0.05671   0.18458   1.000
    H41     H    0.21536   0.05671   0.68458   1.000
    H42     H    0.21536   0.55671   0.18450   1.000
    H43     H    0.21536   0.55671   0.68458   1.000
    H44     H    0.71527   0.05671   0.18460   1.000
    H45     H    0.71527   0.05671   0.68462   1.000
    H46     H    0.71526   0.55671   0.18463   1.000
    H47     H    0.71526   0.55671   0.68462   1.000
    H48     H    0.49374   0.05285   0.36269   1.000
    H49     H    0.49374   0.05284   0.86269   1.000
    H50     H    0.49373   0.55284   0.36269   1.000
    H51     H    0.49374   0.55284   0.86268   1.000
    H52     H    0.99386   0.05285   0.36270   1.000
    H53     H    0.99387   0.05284   0.86270   1.000
    H54     H    0.99386   0.55285   0.36271   1.000
    H55     H    0.99386   0.55284   0.86271   1.000
    H56     H    0.17031   0.05659   0.40262   1.000
    H57     H    0.17032   0.05659   0.90261   1.000
    H58     H    0.17031   0.55660   0.40262   1.000
    H59     H    0.17031   0.55658   0.90261   1.000
    H60     H    0.67017   0.05659   0.40265   1.000
    H61     H    0.67018   0.05659   0.90264   1.000
    H62     H    0.67017   0.55659   0.40265   1.000
    H63     H    0.67018   0.55659   0.90264   1.000
    H64     H    0.10190   0.05698   0.27230   1.000
    H65     H    0.10190   0.05698   0.77229   1.000
    H66     H    0.10190   0.55698   0.27230   1.000
    H67     H    0.10190   0.55697   0.77230   1.000
    H68     H    0.60181   0.05698   0.27233   1.000
    H69     H    0.60181   0.05698   0.77232   1.000
    H70     H    0.60180   0.55698   0.27233   1.000
    H71     H    0.60180   0.55698   0.77232   1.000
    H72     H    0.28471   0.05672   0.31536   1.000
    H73     H    0.28471   0.05671   0.81535   1.000
    H74     H    0.28471   0.55672   0.31536   1.000
    H75     H    0.28471   0.55671   0.81536   1.000
    H76     H    0.78462   0.05671   0.31540   1.000
    H77     H    0.78462   0.05671   0.81540   1.000
    H78     H    0.78461   0.55671   0.31540   1.000
    H79     H    0.78461   0.55671   0.81540   1.000
    H80     H    0.49374   0.44714   0.36269   1.000
    H81     H    0.49374   0.44714   0.86269   1.000
    H82     H    0.49374   0.94715   0.36269   1.000
    H83     H    0.49374   0.94714   0.86268   1.000
    H84     H    0.99386   0.44715   0.36272   1.000
    H85     H    0.99386   0.44714   0.86271   1.000
    H86     H    0.99386   0.94714   0.36271   1.000
    H87     H    0.99387   0.94714   0.86271   1.000
    H88     H    0.17031   0.44341   0.40262   1.000
    H89     H    0.17031   0.44339   0.90261   1.000
    H90     H    0.17031   0.94340   0.40261   1.000
    H91     H    0.17031   0.94339   0.90261   1.000
    H92     H    0.67017   0.44340   0.40265   1.000
    H93     H    0.67018   0.44340   0.90264   1.000
    H94     H    0.67017   0.94340   0.40265   1.000
    H95     H    0.67018   0.94340   0.90264   1.000
    H96     H    0.10190   0.44301   0.27231   1.000
    H97     H    0.10190   0.44301   0.77200   1.000
    H98     H    0.10190   0.94301   0.27230   1.000
    H99     H    0.10190   0.94301   0.77229   1.000
    H100    H    0.60180   0.44301   0.27233   1.000
    H101    H    0.60180   0.44301   0.77232   1.000
    H102    H    0.60180   0.94301   0.27233   1.000
    H103    H    0.60181   0.94301   0.77232   1.000
    H104    H    0.28471   0.44328   0.31536   1.000
    H105    H    0.28471   0.44328   0.81536   1.000
    H106    H    0.28471   0.94328   0.31536   1.000
    H107    H    0.28471   0.94327   0.81535   1.000
    H108    H    0.78461   0.44328   0.31540   1.000
    H109    H    0.78462   0.44328   0.81540   1.000
    H110    H    0.78462   0.94328   0.31540   1.000
    H111    H    0.78462   0.94328   0.81540   1.000
    H112    H    0.00609   0.44714   0.13725   1.000
    H113    H    0.00609   0.44714   0.63724   1.000
    H114    H    0.00610   0.94714   0.13724   1.000
    H115    H    0.00609   0.94714   0.63724   1.000
    H116    H    0.50622   0.44715   0.13728   1.000
    H117    H    0.50623   0.44714   0.63727   1.000
    H118    H    0.50623   0.94715   0.13728   1.000
    H119    H    0.50623   0.94714   0.63727   1.000
    H120    H    0.32979   0.44341   0.09734   1.000
    H121    H    0.32979   0.44340   0.59734   1.000
    H122    H    0.32979   0.94340   0.09734   1.000
    H123    H    0.32979   0.94340   0.59733   1.000
    H124    H    0.82964   0.44340   0.09737   1.000
    H125    H    0.82964   0.44340   0.59736   1.000
    H126    H    0.82964   0.94340   0.09737   1.000
    H127    H    0.82964   0.94340   0.59736   1.000
    H128    H    0.39817   0.44302   0.22766   1.000
    H129    H    0.39817   0.44301   0.72765   1.000
    H130    H    0.39817   0.94301   0.22766   1.000
    H131    H    0.39817   0.94301   0.72765   1.000
    H132    H    0.89807   0.44301   0.22768   1.000
    H133    H    0.89808   0.44301   0.72767   1.000
    H134    H    0.89808   0.94301   0.22768   1.000
    H135    H    0.89808   0.94301   0.72767   1.000
    H136    H    0.21536   0.44329   0.18450   1.000
    H137    H    0.21536   0.44328   0.68458   1.000
    H138    H    0.21536   0.94329   0.18458   1.000
    H139    H    0.21536   0.94328   0.68450   1.000
    H140    H    0.71526   0.44328   0.18463   1.000
    H141    H    0.71527   0.44327   0.68462   1.000
    H142    H    0.71527   0.94328   0.18460   1.000
    H143    H    0.71526   0.94328   0.68462   1.000
    C144    C    0.33051   0.33431   0.47705   1.000
    C145    C    0.33054   0.33431   0.97705   1.000
    C146    C    0.33052   0.83431   0.47700   1.000
    C147    C    0.33052   0.83430   0.97704   1.000
    C148    C    0.83104   0.33431   0.47706   1.000
    C149    C    0.83102   0.33431   0.97705   1.000
    C150    C    0.83101   0.83431   0.47706   1.000
    C151    C    0.83104   0.83431   0.97705   1.000
    C152    C    0.16884   0.33431   0.02289   1.000
    C153    C    0.16881   0.33431   0.52288   1.000
    C154    C    0.16882   0.83432   0.02289   1.000
    C155    C    0.16884   0.83432   0.52289   1.000
    C156    C    0.66933   0.33432   0.02291   1.000
    C157    C    0.66936   0.33431   0.52291   1.000
    C158    C    0.66935   0.83431   0.02292   1.000
    C159    C    0.66932   0.83431   0.52290   1.000
    C160    C    0.16884   0.16568   0.02289   1.000
    C161    C    0.16883   0.16568   0.52289   1.000
    C162    C    0.16881   0.66568   0.02289   1.000
    C163    C    0.16883   0.66568   0.52289   1.000
    C164    C    0.66934   0.16568   0.02292   1.000
    C165    C    0.66936   0.16568   0.52291   1.000
    C166    C    0.66934   0.66568   0.02291   1.000
    C167    C    0.66932   0.66568   0.52291   1.000
    C168    C    0.33052   0.16569   0.47705   1.000
    C169    C    0.33054   0.16568   0.97704   1.000
    C170    C    0.33052   0.66568   0.47705   1.000
    C171    C    0.33052   0.66568   0.97704   1.000
    C172    C    0.83104   0.16568   0.47706   1.000
    C173    C    0.83103   0.16568   0.97700   1.000
    C174    C    0.83100   0.66568   0.47706   1.000
    C175    C    0.83104   0.66568   0.97700   1.000
    C176    C    0.36697   0.00000   0.12446   1.000
    C177    C    0.36697   1.00000   0.62446   1.000
    C178    C    0.36696   0.50000   0.12447   1.000
    C179    C    0.36697   0.49999   0.62446   1.000
    C180    C    0.86684   1.00000   0.12448   1.000
    C181    C    0.86684   0.99999   0.62448   1.000
    C182    C    0.86684   0.50000   0.12448   1.000
    C183    C    0.86684   0.49999   0.62448   1.000
    C184    C    0.35944   0.00000   0.20138   1.000
    C185    C    0.35945   0.99999   0.70137   1.000
    C186    C    0.35944   0.50000   0.20138   1.000
    C187    C    0.35945   0.49999   0.70137   1.000
    C188    C    0.85934   1.00000   0.20140   1.000
    C189    C    0.85934   0.99999   0.70140   1.000
    C190    C    0.85934   0.50000   0.20140   1.000
    C191    C    0.85934   0.49999   0.70140   1.000
    C192    C    0.25366   0.00000   0.21141   1.000
    C193    C    0.25367   0.99999   0.71140   1.000
    C194    C    0.25366   0.50000   0.21141   1.000
    C195    C    0.25366   0.49999   0.71141   1.000
    C196    C    0.75357   1.00000   0.21145   1.000
    C197    C    0.75357   0.99999   0.71140   1.000
    C198    C    0.75357   0.50000   0.21145   1.000
    C199    C    0.75357   0.49999   0.71145   1.000
    C200    C    0.13312   1.00000   0.37550   1.000
    C201    C    0.13312   0.99999   0.87549   1.000
    C202    C    0.13312   0.50000   0.37550   1.000
    C203    C    0.13312   0.49999   0.87549   1.000
    C204    C    0.63300   1.00000   0.37552   1.000
    C205    C    0.63300   0.99999   0.87552   1.000
    C206    C    0.63299   0.50000   0.37552   1.000
    C207    C    0.63300   0.50000   0.87552   1.000
    C208    C    0.14063   1.00000   0.29858   1.000
    C209    C    0.14063   0.99999   0.79857   1.000
    C210    C    0.14063   0.50000   0.29858   1.000
    C211    C    0.14063   0.49999   0.79857   1.000
    C212    C    0.64053   1.00000   0.29861   1.000
    C213    C    0.64053   0.99999   0.79860   1.000
    C214    C    0.64053   0.50000   0.29861   1.000
    C215    C    0.64053   0.49999   0.79860   1.000
    C216    C    0.24641   0.00000   0.28850   1.000
    C217    C    0.24641   0.99999   0.78853   1.000
    C218    C    0.24640   0.50000   0.28854   1.000
    C219    C    0.24641   0.49999   0.78853   1.000
    C220    C    0.74631   1.00000   0.28858   1.000
    C221    C    0.74631   0.99999   0.78857   1.000
    C222    C    0.74631   0.50000   0.28858   1.000
    C223    C    0.74631   0.49999   0.78857   1.000
    N224    N    0.38158   0.38905   0.46333   1.000
    N225    N    0.38160   0.38906   0.96330   1.000
    N226    N    0.38159   0.88905   0.46333   1.000
    N227    N    0.38160   0.88905   0.96333   1.000
    N228    N    0.88183   0.38912   0.46308   1.000
    N229    N    0.88183   0.38910   0.96308   1.000
    N230    N    0.88182   0.88910   0.46310   1.000
    N231    N    0.88184   0.88911   0.96308   1.000
    N232    N    0.11806   0.38912   0.03688   1.000
    N233    N    0.11806   0.38913   0.53688   1.000
    N234    N    0.11806   0.88913   0.03689   1.000
    N235    N    0.11807   0.88912   0.53688   1.000
    N236    N    0.61831   0.38907   0.03666   1.000
    N237    N    0.61832   0.38906   0.53660   1.000
    N238    N    0.61831   0.88907   0.03666   1.000
    N239    N    0.61830   0.88907   0.53660   1.000
    N240    N    0.11807   0.11087   0.03688   1.000
    N241    N    0.11806   0.11086   0.53688   1.000
    N242    N    0.11805   0.61087   0.03688   1.000
    N243    N    0.11806   0.61088   0.53688   1.000
    N244    N    0.61831   0.11092   0.03666   1.000
    N245    N    0.61832   0.11093   0.53660   1.000
    N246    N    0.61831   0.61093   0.03666   1.000
    N247    N    0.61830   0.61092   0.53665   1.000
    N248    N    0.38159   0.11094   0.46333   1.000
    N249    N    0.38161   0.11093   0.96330   1.000
    N250    N    0.38158   0.61093   0.46333   1.000
    N251    N    0.38159   0.61094   0.96333   1.000
    N252    N    0.88183   0.11088   0.46309   1.000
    N253    N    0.88183   0.11088   0.96309   1.000
    N254    N    0.88181   0.61089   0.46309   1.000
    N255    N    0.88183   0.61087   0.96308   1.000
    N256    N    0.46891   0.00000   0.11379   1.000
    N257    N    0.46891   1.00000   0.61370   1.000
    N258    N    0.46891   0.50000   0.11379   1.000
    N259    N    0.46891   0.49999   0.61379   1.000
    N260    N    0.96876   0.00000   0.11378   1.000
    N261    N    0.96876   0.99999   0.61370   1.000
    N262    N    0.96875   0.49999   0.11378   1.000
    N263    N    0.96875   0.50000   0.61377   1.000
    N264    N    0.03119   0.99999   0.38619   1.000
    N265    N    0.03120   0.99999   0.88618   1.000
    N266    N    0.03119   0.50000   0.38619   1.000
    N267    N    0.03119   0.49999   0.88618   1.000
    N268    N    0.53104   1.00000   0.38618   1.000
    N269    N    0.53105   0.99999   0.88618   1.000
    N270    N    0.53104   0.49999   0.38618   1.000
    N271    N    0.53105   0.50000   0.88618   1.000
loop_
    _geom_bond_atom_site_label_1
    _geom_bond_atom_site_label_2
    _geom_bond_distance
    _geom_bond_site_symmetry_2
    _ccdc_geom_bond_type
    Ni12   C156      1.84404      .   S
    Ni12   C164      1.84392      .   S
    Ni12   C173      1.84286  1_554   S
    Ni12   C149      1.84248  1_554   S
    C162   N242      1.17526      .   S
    C162   Ni10      1.84285  1_554   S
    C152   N232      1.17533      .   S
    C152   Ni8       1.84266  1_554   S
    C160   N240      1.17533      .   S
    C160   Ni8       1.84267  1_554   S
    C154   N234      1.17533      .   S
    C154   Ni10      1.84293  1_554   S
    C166   N246      1.17538      .   S
    C156   N236      1.17536      .   S
    C164   N244      1.17535      .   S
    C158   N238      1.17537      .   S
    N244   Cd4       2.38996  1_544   S
    N236   Cd7       2.39002  1_554   S
    N238   Cd4       2.38994  1_554   S
    N246   Cd7       2.38997  1_554   S
    N232   Cd2       2.38798  1_454   S
    N242   Cd2       2.38792  1_454   S
    N240   Cd0       2.38793  1_454   S
    N234   Cd0       2.38794  1_464   S
    H122   C176      1.09813  1_565   S
    H24    C176      1.09811      .   S
    H26    C178      1.09818      .   S
    H120   C178      1.09818      .   S
    H28    C180      1.09811  1_545   S
    H30    C182      1.09810      .   S
    H124   C182      1.09813      .   S
    H126   C180      1.09813      .   S
    N260   C180      1.48139  1_545   S
    N260   H114      1.02675  1_645   S
    N260   H16       1.02675  1_655   S
    N260   Cd0       2.35166  1_554   S
    N262   C182      1.48139      .   S
    N262   H18       1.02672  1_655   S
    N262   H112      1.02675  1_655   S
    N262   Cd2       2.35165  1_554   S
    N256   C176      1.48157      .   S
    N256   H20       1.02677      .   S
    N256   H118      1.02674  1_545   S
    N256   Cd4       2.35086  1_544   S
    N258   C178      1.48163      .   S
    N258   H22       1.02673      .   S
    N258   H116      1.02675      .   S
    N258   Cd7       2.35085  1_554   S
    C176   C184      1.52713      .   S
    C178   C186      1.52694      .   S
    C180   C188      1.52702      .   S
    C182   C190      1.52703      .   S
    H42    C194      1.10397      .   S
    H136   C194      1.10397      .   S
    H40    C192      1.10338      .   S
    H138   C192      1.10339  1_565   S
    H44    C196      1.10355  1_545   S
    H142   C196      1.10357      .   S
    H46    C198      1.10333      .   S
    H140   C198      1.10335      .   S
    C186   C194      1.53048      .   S
    C186   H34       1.10509      .   S
    C186   H128      1.10511      .   S
    C184   C192      1.53049      .   S
    C184   H32       1.10510      .   S
    C184   H130      1.10513  1_545   S
    C188   C196      1.53052      .   S
    C188   H36       1.10513  1_565   S
    C188   H134      1.10515      .   S
    C190   C198      1.53051      .   S
    C190   H38       1.10514      .   S
    C190   H132      1.10513      .   S
    C192   C216      1.52942      .   S
    C194   C218      1.53020      .   S
    C198   C222      1.53020      .   S
    C196   C220      1.53020      .   S
    H98    C208      1.10514      .   S
    H66    C210      1.10510      .   S
    H64    C208      1.10512  1_545   S
    H96    C210      1.10505      .   S
    H68    C212      1.10509  1_545   S
    H100   C214      1.10509      .   S
    H102   C212      1.10511      .   S
    H70    C214      1.10510      .   S
    C216   C208      1.53075  1_545   S
    C216   H72       1.10361      .   S
    C216   H106      1.10365  1_545   S
    C218   C210      1.53049      .   S
    C218   H74       1.10334      .   S
    C218   H104      1.10333      .   S
    C220   C212      1.53051      .   S
    C220   H110      1.10333      .   S
    C220   H76       1.10331  1_565   S
    C222   C214      1.53051      .   S
    C222   H78       1.10332      .   S
    C222   H108      1.10331      .   S
    C210   C202      1.52708      .   S
    C208   C200      1.52707      .   S
    C214   C206      1.52697      .   S
    C212   C204      1.52697      .   S
    H48    N268      1.02668  1_545   S
    H50    N270      1.02668      .   S
    H82    N268      1.02671      .   S
    H80    N270      1.02669      .   S
    H52    N264      1.02686  1_645   S
    H54    N266      1.02676  1_655   S
    H86    N264      1.02679  1_655   S
    H84    N266      1.02673  1_655   S
    C200   N264      1.48145      .   S
    C200   H90       1.09811      .   S
    C200   H56       1.09815  1_565   S
    C202   N266      1.48145      .   S
    C202   H88       1.09814      .   S
    C202   H58       1.09817      .   S
    C206   N270      1.48160      .   S
    C206   H62       1.09816      .   S
    C206   H92       1.09816      .   S
    C204   N268      1.48160      .   S
    C204   H94       1.09819      .   S
    C204   H60       1.09817  1_565   S
    N268   Cd5       2.35115  1_565   S
    N270   Cd6       2.35116      .   S
    N266   Cd3       2.35159  1_455   S
    N264   Cd1       2.35158  1_455   S
    N228   C148      1.17534      .   S
    N228   Cd3       2.38804      .   S
    N254   C174      1.17535      .   S
    N254   Cd3       2.38810      .   S
    N252   C172      1.17525      .   S
    N252   Cd1       2.38804  1_545   S
    N230   C150      1.17530      .   S
    N230   Cd1       2.38810      .   S
    N224   C144      1.17537      .   S
    N224   Cd6       2.39006      .   S
    N226   C146      1.17504      .   S
    N226   Cd5       2.39019  1_565   S
    N250   C170      1.17537      .   S
    N250   Cd6       2.39016      .   S
    N248   C168      1.17536      .   S
    N248   Cd5       2.39011      .   S
    C146   Ni11      1.84393      .   S
    C168   Ni9       1.84306      .   S
    C144   Ni9       1.84303      .   S
    C170   Ni11      1.84358      .   S
    C148   Ni13      1.84278      .   S
    C150   Ni15      1.84284      .   S
    C174   Ni15      1.84281      .   S
    C172   Ni13      1.84281      .   S
    Ni9    C153      1.84324      .   S
    Ni9    C161      1.84325      .   S
    Ni11   C155      1.84269      .   S
    Ni11   C163      1.84272      .   S
    Cd1    N241      2.38793  1_665   S
    Cd1    N235      2.38790  1_655   S
    Cd1    N261      2.35033      .   S
    Cd3    N243      2.38791  1_655   S
    Cd3    N233      2.38798  1_655   S
    Cd3    N263      2.35166      .   S
    Cd6    N237      2.38989      .   S
    Cd6    N247      2.38994      .   S
    Cd6    N259      2.35102      .   S
    Cd5    N239      2.38979  1_545   S
    Cd5    N245      2.38986      .   S
    Cd5    N257      2.34931  1_545   S
    Ni15   C159      1.84339      .   S
    Ni15   C167      1.84345      .   S
    Ni13   C157      1.84351      .   S
    Ni13   C165      1.84347      .   S
    C153   N233      1.17530      .   S
    C155   N235      1.17527      .   S
    C161   N241      1.17530      .   S
    C163   N243      1.17526      .   S
    C159   N239      1.17499      .   S
    C157   N237      1.17499      .   S
    C167   N247      1.17532      .   S
    C165   N245      1.17504      .   S
    H25    C177      1.09818  1_545   S
    H123   C177      1.09820      .   S
    H27    C179      1.09810      .   S
    H121   C179      1.09809      .   S
    H127   C181      1.09821      .   S
    H29    C181      1.09817  1_545   S
    H31    C183      1.09817      .   S
    H125   C183      1.09819      .   S
    N257   C177      1.48215      .   S
    N257   H21       1.02725  1_565   S
    N257   H119      1.02732      .   S
    N261   C181      1.48193      .   S
    N261   H17       1.02724  1_665   S
    N261   H115      1.02726  1_655   S
    N263   C183      1.48146      .   S
    N263   H113      1.02678  1_655   S
    N263   H19       1.02676  1_655   S
    N259   C179      1.48155      .   S
    N259   H23       1.02667      .   S
    N259   H117      1.02667      .   S
    C177   C185      1.52694      .   S
    C179   C187      1.52694      .   S
    C181   C189      1.52703      .   S
    C183   C191      1.52702      .   S
    H139   C193      1.10391      .   S
    H137   C195      1.10339      .   S
    H41    C193      1.10331  1_545   S
    H43    C195      1.10338      .   S
    H47    C199      1.10339      .   S
    H143   C197      1.10306      .   S
    H45    C197      1.10305  1_545   S
    H141   C199      1.10342      .   S
    C187   C195      1.53056      .   S
    C187   H35       1.10510      .   S
    C187   H129      1.10510      .   S
    C185   C193      1.53048      .   S
    C185   H131      1.10513      .   S
    C185   H33       1.10509  1_565   S
    C189   C197      1.53020      .   S
    C189   H37       1.10506  1_565   S
    C189   H135      1.10509      .   S
    C191   C199      1.53052      .   S
    C191   H39       1.10505      .   S
    C191   H133      1.10506      .   S
    C193   C217      1.53020      .   S
    C197   C221      1.53097      .   S
    C195   C219      1.53001      .   S
    C199   C223      1.52999      .   S
    H97    C211      1.10717      .   S
    H65    C209      1.10511  1_545   S
    H99    C209      1.10514      .   S
    H67    C211      1.10505      .   S
    H69    C213      1.10510  1_545   S
    H103   C213      1.10511      .   S
    H71    C215      1.10507      .   S
    H101   C215      1.10510      .   S
    C217   C209      1.53049      .   S
    C217   H73       1.10333  1_565   S
    C217   H107      1.10337      .   S
    C219   C211      1.53049      .   S
    C219   H105      1.10340      .   S
    C219   H75       1.10341      .   S
    C221   C213      1.53049      .   S
    C221   H111      1.10341      .   S
    C221   H77       1.10339  1_565   S
    C223   C215      1.53051      .   S
    C223   H79       1.10339      .   S
    C223   H109      1.10338      .   S
    C209   C201      1.52707      .   S
    C211   C203      1.52708      .   S
    C213   C205      1.52716      .   S
    C215   C207      1.52716      .   S
    H83    N269      1.02676      .   S
    H51    N271      1.02674      .   S
    H81    N271      1.02671      .   S
    H49    N269      1.02671  1_545   S
    H53    N265      1.02677  1_645   S
    H85    N267      1.02671  1_655   S
    H87    N265      1.02676  1_655   S
    H55    N267      1.02672  1_655   S
    C201   N265      1.48145      .   S
    C201   H91       1.09818      .   S
    C201   H57       1.09817  1_565   S
    C203   N267      1.48145      .   S
    C203   H59       1.09815      .   S
    C203   H89       1.09816      .   S
    C207   N271      1.48158      .   S
    C207   H93       1.09807      .   S
    C207   H63       1.09811      .   S
    C205   N269      1.48158      .   S
    C205   H95       1.09811      .   S
    C205   H61       1.09809  1_565   S
    N265   Cd0       2.35200  1_465   S
    N267   Cd2       2.35200  1_455   S
    N269   Cd4       2.35138      .   S
    N271   Cd7       2.35139      .   S
    N229   C149      1.17532      .   S
    N229   Cd2       2.38807      .   S
    N255   C175      1.17494      .   S
    N255   Cd2       2.38797      .   S
    N231   C151      1.17531      .   S
    N231   Cd0       2.38813  1_565   S
    N253   C173      1.17492      .   S
    N253   Cd0       2.38792      .   S
    N249   C169      1.17549      .   S
    N249   Cd4       2.39003  1_545   S
    N225   C145      1.17554      .   S
    N225   Cd7       2.39013      .   S
    N251   C171      1.17531      .   S
    N251   Cd7       2.38997      .   S
    N227   C147      1.17534      .   S
    N227   Cd4       2.39013      .   S
    C147   Ni10      1.84359      .   S
    C171   Ni10      1.84360      .   S
    C169   Ni8       1.84385      .   S
    C145   Ni8       1.84370      .   S
