# CIF file generated by openbabel 2.4.90, see http://openbabel.sf.net
data_I
_chemical_name_common 'VESTA_phase_1'
_cell_length_a 16.341
_cell_length_b 18.078
_cell_length_c 18.066
_cell_angle_alpha 68.745
_cell_angle_beta 72.547
_cell_angle_gamma 107.43
_space_group_name_H-M_alt 'P 1'
_space_group_name_Hall 'P 1'
loop_
    _symmetry_equiv_pos_as_xyz
    x,y,z
loop_
    _atom_site_label
    _atom_site_type_symbol
    _atom_site_fract_x
    _atom_site_fract_y
    _atom_site_fract_z
    _atom_site_occupancy
    Fe0     Fe   0.00001   0.00003   0.49999   1.000
    Fe1     Fe   0.50000   0.50005   0.49998   1.000
    Fe2     Fe   1.00000   0.50003   0.00000   1.000
    Fe3     Fe   1.00000   0.50004   0.49999   1.000
    Fe4     Fe   0.50000   0.00003   0.49999   1.000
    Fe5     Fe   0.50001   0.50004   0.99999   1.000
    H6      H    0.85730   0.07248   0.73300   1.000
    H7      H    0.68831   0.94564   0.81295   1.000
    H8      H    0.65243   0.84080   0.75267   1.000
    H9      H    0.78410   0.86593   0.61750   1.000
    H10     H    0.33856   0.26105   0.43381   1.000
    H11     H    0.47400   0.37911   0.42298   1.000
    H12     H    0.28699   0.44022   0.57476   1.000
    H13     H    0.14390   0.32098   0.59000   1.000
    H14     H    0.58728   0.73266   0.19596   1.000
    H15     H    0.49834   0.81288   0.24395   1.000
    H16     H    0.40370   0.75307   0.40880   1.000
    H17     H    0.40134   0.61793   0.51781   1.000
    H18     H    0.77287   0.43482   0.30450   1.000
    H19     H    0.89802   0.42410   0.19739   1.000
    H20     H    0.86094   0.57431   0.98518   1.000
    H21     H    0.73728   0.59420   0.08418   1.000
    H22     H    0.78270   0.19634   0.07148   1.000
    H23     H    0.74162   0.24431   0.94336   1.000
    H24     H    0.81247   0.40903   0.83804   1.000
    H25     H    0.91953   0.51789   0.86405   1.000
    H26     H    0.07817   0.30422   0.26001   1.000
    H27     H    0.09584   0.19704   0.37821   1.000
    H28     H    0.84582   0.98616   0.44093   1.000
    H29     H    0.82140   0.08517   0.32181   1.000
    H30     H    0.14272   0.92760   0.26679   1.000
    H31     H    0.31172   0.05442   0.18705   1.000
    H32     H    0.34760   0.15925   0.24735   1.000
    H33     H    0.21591   0.13412   0.38251   1.000
    H34     H    0.66147   0.73906   0.56613   1.000
    H35     H    0.52601   0.62104   0.57694   1.000
    H36     H    0.71300   0.55985   0.42524   1.000
    H37     H    0.85610   0.67907   0.40501   1.000
    H38     H    0.41277   0.26753   0.80400   1.000
    H39     H    0.50165   0.18725   0.75607   1.000
    H40     H    0.59622   0.24696   0.59120   1.000
    H41     H    0.59861   0.38209   0.48218   1.000
    H42     H    0.22709   0.56524   0.69548   1.000
    H43     H    0.10194   0.57596   0.80263   1.000
    H44     H    0.13904   0.42574   0.01482   1.000
    H45     H    0.26272   0.40588   0.91581   1.000
    H46     H    0.21736   0.80371   0.92848   1.000
    H47     H    0.25837   0.75573   0.05665   1.000
    H48     H    0.18744   0.59101   0.16202   1.000
    H49     H    0.08037   0.48216   0.13600   1.000
    H50     H    0.92184   0.69584   0.73996   1.000
    H51     H    0.90419   0.80303   0.62176   1.000
    H52     H    0.15419   0.01391   0.55907   1.000
    H53     H    0.17860   0.91489   0.67819   1.000
    H54     H    0.91186   0.19599   0.73281   1.000
    H55     H    0.00000   0.24356   0.81332   1.000
    H56     H    0.09534   0.40825   0.75376   1.000
    H57     H    0.09800   0.51743   0.61850   1.000
    H58     H    0.72741   0.30474   0.43377   1.000
    H59     H    0.60227   0.19746   0.42334   1.000
    H60     H    0.63866   0.98550   0.57493   1.000
    H61     H    0.76217   0.08465   0.59470   1.000
    H62     H    0.71765   0.07189   0.19592   1.000
    H63     H    0.75916   0.94413   0.24378   1.000
    H64     H    0.68832   0.83878   0.40860   1.000
    H65     H    0.58090   0.86446   0.51767   1.000
    H66     H    0.42115   0.25936   0.30410   1.000
    H67     H    0.40377   0.37782   0.19695   1.000
    H68     H    0.65420   0.44096   0.98597   1.000
    H69     H    0.67851   0.32173   0.08490   1.000
    H70     H    0.64344   0.73303   0.07221   1.000
    H71     H    0.81222   0.81266   0.94494   1.000
    H72     H    0.84770   0.75228   0.84008   1.000
    H73     H    0.71580   0.61719   0.86557   1.000
    H74     H    0.16220   0.43405   0.26098   1.000
    H75     H    0.02644   0.42314   0.37898   1.000
    H76     H    0.21284   0.57418   0.44100   1.000
    H77     H    0.35618   0.59441   0.32189   1.000
    H78     H    0.08811   0.80409   0.26715   1.000
    H79     H    0.99935   0.75648   0.18665   1.000
    H80     H    0.90467   0.59180   0.24623   1.000
    H81     H    0.90201   0.48265   0.38151   1.000
    H82     H    0.27254   0.69531   0.56627   1.000
    H83     H    0.39770   0.80260   0.57667   1.000
    H84     H    0.36135   0.01457   0.42504   1.000
    H85     H    0.23782   0.91541   0.40528   1.000
    H86     H    0.28232   0.92813   0.80408   1.000
    H87     H    0.24080   0.05589   0.75624   1.000
    H88     H    0.31167   0.16129   0.59144   1.000
    H89     H    0.41910   0.13564   0.48234   1.000
    H90     H    0.57886   0.74073   0.69589   1.000
    H91     H    0.59625   0.62228   0.80304   1.000
    H92     H    0.34579   0.55910   0.01402   1.000
    H93     H    0.32149   0.67832   0.91501   1.000
    H94     H    0.35660   0.26701   0.92780   1.000
    H95     H    0.18780   0.18739   0.05506   1.000
    H96     H    0.15229   0.24781   0.15988   1.000
    H97     H    0.28417   0.38291   0.13439   1.000
    H98     H    0.83781   0.56590   0.73900   1.000
    H99     H    0.97355   0.57679   0.62110   1.000
    H100    H    0.78716   0.42601   0.55889   1.000
    H101    H    0.64382   0.40574   0.67803   1.000
    C102    C    0.00691   0.10053   0.58804   1.000
    C103    C    0.14616   0.20357   0.53330   1.000
    C104    C    0.90746   0.03334   0.63712   1.000
    C105    C    0.83729   0.02405   0.71153   1.000
    C106    C    0.74436   0.95437   0.75464   1.000
    C107    C    0.72409   0.89625   0.72121   1.000
    C108    C    0.79688   0.90934   0.64622   1.000
    C109    C    0.22815   0.27847   0.51779   1.000
    C110    C    0.32392   0.29908   0.46643   1.000
    C111    C    0.40012   0.36531   0.46003   1.000
    C112    C    0.29589   0.39871   0.54507   1.000
    C113    C    0.21606   0.33222   0.55593   1.000
    C114    C    0.59335   0.58775   0.31187   1.000
    C115    C    0.67838   0.53317   0.26302   1.000
    C116    C    0.54282   0.63692   0.33053   1.000
    C117    C    0.54633   0.71126   0.26598   1.000
    C118    C    0.49662   0.75459   0.29306   1.000
    C119    C    0.44378   0.72144   0.38448   1.000
    C120    C    0.44223   0.64647   0.44579   1.000
    C121    C    0.74527   0.51783   0.20351   1.000
    C122    C    0.79050   0.46704   0.23406   1.000
    C123    C    0.86062   0.46073   0.17430   1.000
    C124    C    0.84038   0.54489   0.05622   1.000
    C125    C    0.77097   0.55557   0.11184   1.000
    C126    C    0.90561   0.31210   0.10004   1.000
    C127    C    0.94191   0.26326   0.20340   1.000
    C128    C    0.87355   0.33074   0.03233   1.000
    C129    C    0.81212   0.26627   0.02271   1.000
    C130    C    0.78936   0.29335   0.95238   1.000
    C131    C    0.82824   0.38468   0.89000   1.000
    C132    C    0.88832   0.44593   0.90752   1.000
    C133    C    0.94921   0.20381   0.27834   1.000
    C134    C    0.02514   0.23403   0.29840   1.000
    C135    C    0.03529   0.17425   0.36471   1.000
    C136    C    0.89653   0.05690   0.39907   1.000
    C137    C    0.88292   0.11254   0.33260   1.000
    C138    C    0.99310   0.89954   0.41194   1.000
    C139    C    0.85385   0.79651   0.46660   1.000
    C140    C    0.09255   0.96674   0.36286   1.000
    C141    C    0.16272   0.97602   0.28845   1.000
    C142    C    0.25566   0.04570   0.24536   1.000
    C143    C    0.27593   0.10380   0.27880   1.000
    C144    C    0.20313   0.09072   0.35378   1.000
    C145    C    0.77186   0.72161   0.48219   1.000
    C146    C    0.67610   0.70102   0.53353   1.000
    C147    C    0.59989   0.63482   0.53992   1.000
    C148    C    0.70410   0.60137   0.45492   1.000
    C149    C    0.78393   0.66784   0.44407   1.000
    C150    C    0.40667   0.41238   0.68808   1.000
    C151    C    0.32161   0.46693   0.73696   1.000
    C152    C    0.45721   0.36322   0.66943   1.000
    C153    C    0.45370   0.28888   0.73399   1.000
    C154    C    0.50337   0.24552   0.70694   1.000
    C155    C    0.55618   0.27863   0.61553   1.000
    C156    C    0.55773   0.35358   0.55419   1.000
    C157    C    0.25471   0.48224   0.79648   1.000
    C158    C    0.20946   0.53302   0.76595   1.000
    C159    C    0.13935   0.53933   0.82571   1.000
    C160    C    0.15961   0.45517   0.94378   1.000
    C161    C    0.22901   0.44450   0.88810   1.000
    C162    C    0.09440   0.68796   0.89994   1.000
    C163    C    0.05809   0.73680   0.79600   1.000
    C164    C    0.12646   0.66931   0.96766   1.000
    C165    C    0.18791   0.73377   0.97727   1.000
    C166    C    0.21062   0.70669   0.04763   1.000
    C167    C    0.17171   0.61537   0.10604   1.000
    C168    C    0.11162   0.55412   0.09250   1.000
    C169    C    0.05080   0.79625   0.72165   1.000
    C170    C    0.97488   0.76604   0.70154   1.000
    C171    C    0.96473   0.82582   0.63526   1.000
    C172    C    0.10348   0.94317   0.60090   1.000
    C173    C    0.11709   0.88752   0.66739   1.000
    C174    C    0.90623   0.31209   0.58771   1.000
    C175    C    0.82145   0.26341   0.53287   1.000
    C176    C    0.95659   0.33056   0.63700   1.000
    C177    C    0.95290   0.26591   0.71149   1.000
    C178    C    0.00000   0.29276   0.75499   1.000
    C179    C    0.05538   0.38406   0.72196   1.000
    C180    C    0.05708   0.44549   0.64694   1.000
    C181    C    0.75462   0.20390   0.51754   1.000
    C182    C    0.70963   0.23431   0.46639   1.000
    C183    C    0.63951   0.17444   0.46022   1.000
    C184    C    0.65934   0.05652   0.54516   1.000
    C185    C    0.72868   0.11223   0.55576   1.000
    C186    C    0.59434   0.10005   0.31190   1.000
    C187    C    0.55776   0.20315   0.26311   1.000
    C188    C    0.62664   0.03255   0.33049   1.000
    C189    C    0.68827   0.02313   0.26589   1.000
    C190    C    0.71124   0.95299   0.29291   1.000
    C191    C    0.67239   0.89460   0.38430   1.000
    C192    C    0.61210   0.90793   0.44567   1.000
    C193    C    0.55044   0.27803   0.20360   1.000
    C194    C    0.47437   0.29798   0.23390   1.000
    C195    C    0.46437   0.36437   0.17414   1.000
    C196    C    0.60338   0.39898   0.05674   1.000
    C197    C    0.61690   0.33245   0.11230   1.000
    C198    C    0.49352   0.58799   0.10000   1.000
    C199    C    0.35435   0.53328   0.20386   1.000
    C200    C    0.59292   0.63700   0.03320   1.000
    C201    C    0.66324   0.71136   0.02373   1.000
    C202    C    0.75607   0.75437   0.95382   1.000
    C203    C    0.77611   0.72090   0.89569   1.000
    C204    C    0.70320   0.64595   0.90898   1.000
    C205    C    0.27229   0.51768   0.27885   1.000
    C206    C    0.17661   0.46648   0.29920   1.000
    C207    C    0.10025   0.46003   0.36539   1.000
    C208    C    0.20414   0.54467   0.39930   1.000
    C209    C    0.28411   0.55553   0.33280   1.000
    C210    C    0.09373   0.68800   0.41230   1.000
    C211    C    0.17852   0.73666   0.46714   1.000
    C212    C    0.04339   0.66954   0.36292   1.000
    C213    C    0.04709   0.73417   0.28849   1.000
    C214    C    0.99749   0.70730   0.24499   1.000
    C215    C    0.94463   0.61599   0.27802   1.000
    C216    C    0.94292   0.55458   0.35306   1.000
    C217    C    0.24536   0.79616   0.48248   1.000
    C218    C    0.29034   0.76575   0.53363   1.000
    C219    C    0.36046   0.82562   0.53979   1.000
    C220    C    0.34065   0.94355   0.45483   1.000
    C221    C    0.27131   0.88783   0.44423   1.000
    C222    C    0.40565   0.90001   0.68808   1.000
    C223    C    0.44223   0.79692   0.73688   1.000
    C224    C    0.37334   0.96751   0.66950   1.000
    C225    C    0.31171   0.97692   0.73411   1.000
    C226    C    0.28873   0.04706   0.70710   1.000
    C227    C    0.32761   0.10547   0.61572   1.000
    C228    C    0.38789   0.09215   0.55434   1.000
    C229    C    0.44956   0.72204   0.79634   1.000
    C230    C    0.52564   0.70210   0.76609   1.000
    C231    C    0.53565   0.63572   0.82585   1.000
    C232    C    0.39661   0.60108   0.94320   1.000
    C233    C    0.38309   0.66761   0.88763   1.000
    C234    C    0.50649   0.41206   0.89941   1.000
    C235    C    0.64566   0.46678   0.79614   1.000
    C236    C    0.40708   0.36307   0.96680   1.000
    C237    C    0.33678   0.28869   0.97628   1.000
    C238    C    0.24395   0.24569   0.04618   1.000
    C239    C    0.22388   0.27919   0.10427   1.000
    C240    C    0.29679   0.35414   0.09099   1.000
    C241    C    0.72772   0.48236   0.72115   1.000
    C242    C    0.82339   0.53351   0.70083   1.000
    C243    C    0.89975   0.53995   0.63465   1.000
    C244    C    0.79587   0.45546   0.60063   1.000
    C245    C    0.71589   0.44457   0.66708   1.000
    N246    N    0.06508   0.09419   0.52113   1.000
    N247    N    0.15562   0.16037   0.48552   1.000
    N248    N    0.05446   0.16823   0.59797   1.000
    N249    N    0.88790   0.97632   0.60400   1.000
    N250    N    0.38820   0.41489   0.49991   1.000
    N251    N    0.58538   0.52100   0.38465   1.000
    N252    N    0.64062   0.48549   0.35370   1.000
    N253    N    0.65064   0.59765   0.23419   1.000
    N254    N    0.49094   0.60405   0.42056   1.000
    N255    N    0.88817   0.50021   0.08506   1.000
    N256    N    0.97056   0.38476   0.09397   1.000
    N257    N    0.99498   0.35383   0.16033   1.000
    N258    N    0.88520   0.23450   0.16781   1.000
    N259    N    0.91185   0.42070   0.97514   1.000
    N260    N    0.97328   0.08534   0.41477   1.000
    N261    N    0.93493   0.90588   0.47885   1.000
    N262    N    0.84440   0.83971   0.51446   1.000
    N263    N    0.94555   0.83185   0.40201   1.000
    N264    N    0.11211   0.02375   0.39599   1.000
    N265    N    0.61181   0.58522   0.50006   1.000
    N266    N    0.41461   0.47911   0.61530   1.000
    N267    N    0.35934   0.51460   0.64626   1.000
    N268    N    0.34939   0.40247   0.76577   1.000
    N269    N    0.50907   0.39605   0.57940   1.000
    N270    N    0.11181   0.49985   0.91495   1.000
    N271    N    0.02942   0.61530   0.90605   1.000
    N272    N    0.00499   0.64623   0.83969   1.000
    N273    N    0.11484   0.76556   0.83216   1.000
    N274    N    0.08813   0.57935   0.02487   1.000
    N275    N    0.02674   0.91473   0.58521   1.000
    N276    N    0.91452   0.38488   0.52075   1.000
    N277    N    0.85944   0.35406   0.48505   1.000
    N278    N    0.84890   0.23452   0.59760   1.000
    N279    N    0.00853   0.42047   0.60431   1.000
    N280    N    0.61176   0.08524   0.50013   1.000
    N281    N    0.52926   0.09384   0.38466   1.000
    N282    N    0.50464   0.16004   0.35376   1.000
    N283    N    0.61468   0.16775   0.23427   1.000
    N284    N    0.58837   0.97537   0.42050   1.000
    N285    N    0.52659   0.41464   0.08520   1.000
    N286    N    0.43526   0.52118   0.09428   1.000
    N287    N    0.34479   0.48560   0.16050   1.000
    N288    N    0.44606   0.59787   0.16840   1.000
    N289    N    0.61227   0.60383   0.97610   1.000
    N290    N    0.11195   0.49975   0.41514   1.000
    N291    N    0.08544   0.61520   0.47925   1.000
    N292    N    0.14053   0.64601   0.51495   1.000
    N293    N    0.15108   0.76556   0.40241   1.000
    N294    N    0.99146   0.57962   0.39569   1.000
    N295    N    0.38823   0.91483   0.49986   1.000
    N296    N    0.47073   0.90622   0.61533   1.000
    N297    N    0.49535   0.84003   0.64623   1.000
    N298    N    0.38531   0.83232   0.76570   1.000
    N299    N    0.41163   0.02470   0.57949   1.000
    N300    N    0.47341   0.58545   0.91477   1.000
    N301    N    0.56475   0.47888   0.90570   1.000
    N302    N    0.65522   0.51447   0.83940   1.000
    N303    N    0.55395   0.40218   0.83150   1.000
    N304    N    0.38773   0.39625   0.02383   1.000
    N305    N    0.88806   0.50031   0.58480   1.000
loop_
    _geom_bond_atom_site_label_1
    _geom_bond_atom_site_label_2
    _geom_bond_distance
    _geom_bond_site_symmetry_2
    _ccdc_geom_bond_type
    H92    C232      1.08797  1_554   S
    H44    C160      1.08731  1_554   S
    C129   C128      1.39533      .   S
    C129   H22       1.08634      .   S
    C129   C130      1.39059  1_554   S
    C201   C200      1.39524      .   S
    C201   H70       1.08624      .   S
    C201   C202      1.39032  1_554   S
    N304   C240      1.35320      .   S
    N304   C236      1.37386  1_554   S
    N304   Fe5       1.98754  1_554   S
    N274   C168      1.35291      .   S
    N274   C164      1.37406  1_554   S
    N274   Fe2       1.98754  1_455   S
    C128   C126      1.44073      .   S
    C128   N259      1.37407  1_554   S
    C200   C198      1.43758      .   S
    C200   N289      1.37474  1_554   S
    C238   H95       1.08991      .   S
    C238   C239      1.39611      .   S
    C238   C237      1.39032  1_554   S
    C166   H47       1.08993      .   S
    C166   C167      1.39612      .   S
    C166   C165      1.39061  1_554   S
    C124   N255      1.36038      .   S
    C124   C125      1.38614      .   S
    C124   H20       1.08731  1_554   S
    C196   N285      1.36018      .   S
    C196   C197      1.38569      .   S
    C196   H68       1.08732  1_554   S
    H21    C125      1.08765      .   S
    H69    C197      1.08778      .   S
    N255   C123      1.35983      .   S
    N255   Fe2       2.00585      .   S
    N285   C195      1.35987      .   S
    N285   Fe5       2.00552  1_554   S
    C240   C239      1.39228      .   S
    C240   H97       1.09121      .   S
    C168   C167      1.39247      .   S
    C168   H49       1.09124      .   S
    N256   C126      1.36175      .   S
    N256   N257      1.35790      .   S
    N256   Fe2       1.94954      .   S
    N286   C198      1.35515      .   S
    N286   N287      1.35719      .   S
    N286   Fe5       1.94942  1_554   S
    C198   N288      1.35226      .   S
    C126   N258      1.34452      .   S
    C239   H96       1.08810      .   S
    C167   H48       1.08795      .   S
    C125   C121      1.40585      .   S
    C197   C193      1.40600      .   S
    N257   C127      1.36359      .   S
    N287   C199      1.36492      .   S
    N258   C127      1.36152      .   S
    N288   C199      1.36134      .   S
    C195   H67       1.08699      .   S
    C195   C194      1.38446      .   S
    C123   H19       1.08691      .   S
    C123   C122      1.38454      .   S
    H79    C214      1.08978      .   S
    H31    C142      1.08983      .   S
    H62    C189      1.08630      .   S
    H14    C117      1.08626      .   S
    C127   C133      1.45628      .   S
    C121   C122      1.40635      .   S
    C121   C115      1.45612      .   S
    C193   C194      1.40652      .   S
    C193   C187      1.45663      .   S
    C199   C205      1.45596      .   S
    C194   H66       1.08851      .   S
    C122   H18       1.08804      .   S
    N253   C115      1.36154      .   S
    N253   C114      1.34433      .   S
    N283   C187      1.36151      .   S
    N283   C186      1.34443      .   S
    H63    C190      1.08988      .   S
    H15    C118      1.08987      .   S
    C214   C215      1.39618      .   S
    C214   C213      1.39042  1_655   S
    C142   C143      1.39634      .   S
    C142   C141      1.39032  1_545   S
    H80    C215      1.08797      .   S
    H32    C143      1.08804      .   S
    H26    C134      1.08851      .   S
    H74    C206      1.08819      .   S
    C115   N252      1.36334      .   S
    C187   N282      1.36363      .   S
    C189   C190      1.39043  1_545   S
    C189   C188      1.39541      .   S
    C117   C118      1.39042      .   S
    C117   C116      1.39527      .   S
    H30    C141      1.08626      .   S
    H78    C213      1.08626      .   S
    C215   C216      1.39236      .   S
    C133   C134      1.40585  1_655   S
    C133   C137      1.40584      .   S
    C143   C144      1.39231      .   S
    C205   C206      1.40642      .   S
    C205   C209      1.40457      .   S
    C141   C140      1.39521      .   S
    C213   C212      1.39528      .   S
    C190   C191      1.39621      .   S
    C118   C119      1.39622      .   S
    C134   C135      1.38504      .   S
    C206   C207      1.38471      .   S
    C114   C116      1.44068      .   S
    C114   N251      1.36184      .   S
    C186   C188      1.44070      .   S
    C186   N281      1.36181      .   S
    H29    C137      1.08759      .   S
    H77    C209      1.08821      .   S
    C188   N284      1.37399  1_545   S
    C116   N254      1.37389      .   S
    C137   C136      1.38629      .   S
    C209   C208      1.38685      .   S
    C216   H81       1.09118      .   S
    C216   N294      1.35320      .   S
    N252   N251      1.35805      .   S
    N282   N281      1.35797      .   S
    C144   H33       1.09122      .   S
    C144   N264      1.35315      .   S
    C140   N264      1.37380  1_565   S
    C140   C138      1.44051  1_455   S
    C212   N294      1.37392  1_455   S
    C212   C210      1.44067      .   S
    C135   H27       1.08706      .   S
    C135   N260      1.35975  1_455   S
    C207   H75       1.08694      .   S
    C207   N290      1.35969      .   S
    C191   H64       1.08795      .   S
    C191   C192      1.39233      .   S
    C119   H16       1.08769      .   S
    C119   C120      1.39228      .   S
    N251   Fe1       1.94904      .   S
    N281   Fe4       1.94953      .   S
    N294   Fe3       1.98795      .   S
    N264   Fe0       1.98754      .   S
    C136   N260      1.36025      .   S
    C136   H28       1.08728  1_545   S
    C208   N290      1.36045      .   S
    C208   H76       1.08737      .   S
    N263   C138      1.34420      .   S
    N263   C139      1.36092      .   S
    N293   C210      1.34421      .   S
    N293   C211      1.36147      .   S
    H37    C149      1.08779      .   S
    H85    C221      1.08770      .   S
    C138   N261      1.36171      .   S
    C210   N291      1.36167      .   S
    N260   Fe0       2.00618  1_655   S
    N290   Fe3       2.00641  1_455   S
    N284   C192      1.35311      .   S
    N284   Fe4       1.98801  1_565   S
    N254   C120      1.35315      .   S
    N254   Fe1       1.98835      .   S
    H11    C111      1.08695      .   S
    H59    C183      1.08691      .   S
    H84    C220      1.08721  1_545   S
    H36    C148      1.08740      .   S
    H58    C182      1.08847      .   S
    H10    C110      1.08852      .   S
    C149   C148      1.38607      .   S
    C149   C145      1.40591      .   S
    C221   C220      1.38620      .   S
    C221   C217      1.40589      .   S
    C192   H65       1.09110      .   S
    C120   H17       1.09124      .   S
    C220   N295      1.36043      .   S
    C148   N265      1.36044      .   S
    C111   C110      1.38472      .   S
    C111   N250      1.35980      .   S
    C183   C182      1.38478      .   S
    C183   N280      1.35980      .   S
    C182   C181      1.40634      .   S
    C110   C109      1.40628      .   S
    C139   C145      1.45545      .   S
    C139   N262      1.36497      .   S
    C211   C217      1.45629      .   S
    C211   N292      1.36366      .   S
    N261   Fe0       1.95041  1_665   S
    N261   N262      1.35812      .   S
    N291   Fe3       1.95012  1_455   S
    N291   N292      1.35830      .   S
    H41    C156      1.09115      .   S
    C145   C146      1.40629      .   S
    H89    C228      1.09114      .   S
    C217   C218      1.40626      .   S
    N277   N276      1.35831      .   S
    N277   C175      1.36367      .   S
    N247   N246      1.35816      .   S
    N247   C103      1.36373      .   S
    N295   Fe4       2.00700  1_565   S
    N295   C219      1.35980      .   S
    N250   Fe1       2.00650      .   S
    N250   C112      1.36041      .   S
    Fe1    N265      2.00669      .   S
    Fe1    N269      1.98854      .   S
    Fe1    N266      1.94903      .   S
    Fe4    N280      2.00714      .   S
    Fe4    N299      1.98830      .   S
    Fe4    N296      1.94962  1_545   S
    Fe3    N276      1.95027      .   S
    Fe3    N305      2.00581      .   S
    Fe3    N279      1.98815  1_655   S
    Fe0    N246      1.95063      .   S
    Fe0    N275      2.00613  1_545   S
    Fe0    N249      1.98774  1_445   S
    N265   C147      1.35972      .   S
    N280   C184      1.36049      .   S
    C181   C175      1.45624      .   S
    C181   C185      1.40592      .   S
    C109   C103      1.45614      .   S
    C109   C113      1.40590      .   S
    N276   C174      1.36163      .   S
    N246   C102      1.36176      .   S
    C175   N278      1.36151      .   S
    C103   N248      1.36147      .   S
    C146   C147      1.38475      .   S
    C146   H34       1.08836      .   S
    C218   C219      1.38478      .   S
    C218   H82       1.08848      .   S
    C219   H83       1.08687      .   S
    C147   H35       1.08694      .   S
    C112   C113      1.38604      .   S
    C112   H12       1.08737      .   S
    C184   C185      1.38613      .   S
    C184   H60       1.08723  1_545   S
    C156   N269      1.35316      .   S
    C156   C155      1.39232      .   S
    C228   N299      1.35311      .   S
    C228   C227      1.39232      .   S
    C185   H61       1.08769      .   S
    C113   H13       1.06824      .   S
    H100   C244      1.08735      .   S
    H52    C172      1.08725  1_545   S
    N269   C152      1.37398      .   S
    N299   C224      1.37402  1_545   S
    N305   C244      1.36024      .   S
    N305   C243      1.36027      .   S
    N275   C172      1.36005      .   S
    N275   C171      1.35976  1_455   S
    C174   N278      1.34425      .   S
    C174   C176      1.43946      .   S
    C102   N248      1.34418      .   S
    C102   C104      1.44052  1_455   S
    H40    C155      1.08794      .   S
    H88    C227      1.08796      .   S
    C244   C245      1.38617      .   S
    C172   C173      1.38652      .   S
    N249   C104      1.37379  1_565   S
    N249   C108      1.35317      .   S
    N279   C176      1.37413  1_455   S
    N279   C180      1.35320      .   S
    N266   N267      1.35805      .   S
    N266   C150      1.36193      .   S
    N296   N297      1.35799      .   S
    N296   C222      1.36169      .   S
    C155   C154      1.39614      .   S
    C227   C226      1.39611      .   S
    H9     C108      1.09118      .   S
    H57    C180      1.09119      .   S
    H99    C243      1.08693      .   S
    H51    C171      1.08694      .   S
    C243   C242      1.38453      .   S
    C171   C170      1.38466      .   S
    C176   C177      1.39612      .   S
    C104   C105      1.39516      .   S
    C108   C107      1.39233      .   S
    N297   C223      1.36363      .   S
    N267   C151      1.36368      .   S
    C180   C179      1.39232      .   S
    C245   H101      1.08770      .   S
    C245   C241      1.40584      .   S
    C173   H53       1.08765      .   S
    C173   C169      1.40585      .   S
    C152   C150      1.44064      .   S
    C152   C153      1.39520      .   S
    C224   C222      1.44069      .   S
    C224   C225      1.39542      .   S
    C222   N298      1.34427      .   S
    C150   N268      1.34435      .   S
    H42    C158      1.08856      .   S
    H90    C230      1.08853      .   S
    C242   C241      1.40628      .   S
    C242   H98       1.08698      .   S
    C170   C169      1.40633  1_655   S
    C170   H50       1.08851      .   S
    C154   C153      1.39040      .   S
    C154   H39       1.08987      .   S
    C226   C225      1.39042  1_545   S
    C226   H87       1.08985      .   S
    C177   H54       1.08628      .   S
    C177   C178      1.36424  1_655   S
    C105   H6        1.08372      .   S
    C105   C106      1.39032  1_545   S
    C241   C235      1.45602      .   S
    C107   H8        1.08804      .   S
    C107   C106      1.39633      .   S
    C169   C163      1.44895      .   S
    C179   H56       1.08799      .   S
    C179   C178      1.40235      .   S
    C153   H38       1.08626      .   S
    C225   H86       1.08636      .   S
    C223   N298      1.36139      .   S
    C223   C229      1.45623      .   S
    C151   N268      1.36150      .   S
    C151   C157      1.45607      .   S
    C106   H7        1.08979      .   S
    C178   H55       1.10542      .   S
    C158   C157      1.40632      .   S
    C158   C159      1.38447      .   S
    C230   C229      1.40631      .   S
    C230   C231      1.38451      .   S
    C163   N273      1.37033      .   S
    C163   N272      1.36305      .   S
    C235   N303      1.36167      .   S
    C235   N302      1.36366      .   S
    C229   C233      1.40592      .   S
    C157   C161      1.40505      .   S
    H43    C159      1.08691      .   S
    H91    C231      1.08700      .   S
    C159   N270      1.35986      .   S
    C231   N300      1.35964      .   S
    N303   C234      1.34536      .   S
    N273   C162      1.34444      .   S
    H24    C131      1.02699      .   S
    N302   N301      1.35774      .   S
    N272   N271      1.35797      .   S
    H72    C203      1.08802      .   S
    H25    C132      1.09121      .   S
    H73    C204      1.09120      .   S
    C233   H93       1.08767      .   S
    C233   C232      1.38577      .   S
    C161   H45       1.08802      .   S
    C161   C160      1.38664      .   S
    C131   C132      1.44201      .   S
    C131   C130      1.41164      .   S
    C203   C204      1.39223      .   S
    C203   C202      1.39624      .   S
    C234   N301      1.36157      .   S
    C234   C236      1.44062      .   S
    C162   N271      1.36168      .   S
    C162   C164      1.44089      .   S
    N301   Fe5       1.94969      .   S
    N271   Fe2       1.94944  1_456   S
    C132   N259      1.35314      .   S
    C204   N289      1.35284      .   S
    N300   C232      1.36007      .   S
    N300   Fe5       2.00562      .   S
    N270   C160      1.36037      .   S
    N270   Fe2       2.00567  1_456   S
    H94    C237      1.08650      .   S
    H46    C165      1.08636      .   S
    H23    C130      1.08992      .   S
    H71    C202      1.08988      .   S
    C236   C237      1.39520      .   S
    C164   C165      1.39527      .   S
    N259   Fe2       1.98768  1_556   S
    N289   Fe5       1.98690      .   S
