# CIF file generated by openbabel 2.4.90, see http://openbabel.sf.net
data_I
_chemical_name_common ''
_cell_length_a 20.521
_cell_length_b 16.616
_cell_length_c 19.798
_cell_angle_alpha 89.965
_cell_angle_beta 101.651
_cell_angle_gamma 90.041
_space_group_name_H-M_alt 'P 1'
_space_group_name_Hall 'P 1'
loop_
    _symmetry_equiv_pos_as_xyz
    x,y,z
loop_
    _atom_site_label
    _atom_site_type_symbol
    _atom_site_fract_x
    _atom_site_fract_y
    _atom_site_fract_z
    _atom_site_occupancy
    H0      H    0.28245   0.05870   0.71459   1.000
    H1      H    0.78244   0.05870   0.71459   1.000
    H2      H    0.35894   0.29183   0.67161   1.000
    H3      H    0.85898   0.29181   0.67162   1.000
    H4      H    0.45284   0.19941   0.70839   1.000
    H5      H    0.95287   0.19937   0.70841   1.000
    H6      H    0.10183   0.26933   0.88379   1.000
    H7      H    0.60183   0.26933   0.88376   1.000
    H8      H    0.02067   0.25494   0.95984   1.000
    H9      H    0.52068   0.25494   0.95982   1.000
    H10     H    0.18978   0.18445   0.87293   1.000
    H11     H    0.68978   0.18442   0.87290   1.000
    H12     H    0.22664   0.08761   0.89118   1.000
    H13     H    0.72664   0.08759   0.89119   1.000
    H14     H    0.18072   0.19792   0.99794   1.000
    H15     H    0.68070   0.19792   0.99793   1.000
    H16     H    0.13628   0.11283   0.95813   1.000
    H17     H    0.63628   0.11281   0.95813   1.000
    H18     H    0.21523   0.09997   0.00000   1.000
    H19     H    0.71523   0.09998   0.00000   1.000
    H20     H    0.25442   0.16424   0.80002   1.000
    H21     H    0.75442   0.16423   0.80002   1.000
    H22     H    0.38896   0.07068   0.97105   1.000
    H23     H    0.88894   0.07068   0.97105   1.000
    H24     H    0.39777   0.96073   0.05689   1.000
    H25     H    0.89775   0.96073   0.05690   1.000
    H26     H    0.45963   0.12979   0.22194   1.000
    H27     H    0.95962   0.12980   0.22190   1.000
    H28     H    0.45914   0.38507   0.10977   1.000
    H29     H    0.95913   0.38507   0.10977   1.000
    H30     H    0.48806   0.45127   0.01502   1.000
    H31     H    0.98805   0.45127   0.01502   1.000
    H32     H    0.40626   0.46854   0.03030   1.000
    H33     H    0.90624   0.46854   0.03029   1.000
    H34     H    0.36478   0.49894   0.90540   1.000
    H35     H    0.86478   0.49893   0.90540   1.000
    H36     H    0.43435   0.56180   0.93909   1.000
    H37     H    0.93434   0.56180   0.93909   1.000
    H38     H    0.44472   0.47697   0.88778   1.000
    H39     H    0.94472   0.47697   0.88778   1.000
    H40     H    0.08182   0.28166   0.21124   1.000
    H41     H    0.58183   0.28166   0.21125   1.000
    H42     H    0.03707   0.35793   0.40401   1.000
    H43     H    0.53706   0.35791   0.40402   1.000
    H44     H    0.37788   0.28963   0.23650   1.000
    H45     H    0.87788   0.28966   0.23650   1.000
    H46     H    0.21754   0.55877   0.28546   1.000
    H47     H    0.71754   0.55878   0.28550   1.000
    H48     H    0.14109   0.79179   0.32828   1.000
    H49     H    0.64107   0.79179   0.32832   1.000
    H50     H    0.04718   0.69937   0.29159   1.000
    H51     H    0.54716   0.69936   0.29161   1.000
    H52     H    0.39823   0.76931   0.11621   1.000
    H53     H    0.89824   0.76935   0.11620   1.000
    H54     H    0.47935   0.75495   0.04015   1.000
    H55     H    0.97935   0.75498   0.04013   1.000
    H56     H    0.31019   0.68446   0.12705   1.000
    H57     H    0.81019   0.68446   0.12708   1.000
    H58     H    0.27323   0.58762   0.10889   1.000
    H59     H    0.77324   0.58762   0.10890   1.000
    H60     H    0.31929   0.69791   0.00000   1.000
    H61     H    0.81930   0.69791   0.00000   1.000
    H62     H    0.36363   0.61281   0.04194   1.000
    H63     H    0.86364   0.61281   0.04197   1.000
    H64     H    0.28468   0.59995   0.98536   1.000
    H65     H    0.78468   0.59995   0.98539   1.000
    H66     H    0.24554   0.66424   0.19995   1.000
    H67     H    0.74554   0.66425   0.19999   1.000
    H68     H    0.11101   0.57075   0.02900   1.000
    H69     H    0.61102   0.57073   0.02900   1.000
    H70     H    0.10222   0.46087   0.94323   1.000
    H71     H    0.60224   0.46085   0.94325   1.000
    H72     H    0.04042   0.62992   0.77807   1.000
    H73     H    0.54040   0.62990   0.77810   1.000
    H74     H    0.04083   0.88513   0.89009   1.000
    H75     H    0.54082   0.88510   0.89012   1.000
    H76     H    0.01190   0.95119   0.98480   1.000
    H77     H    0.51190   0.95117   0.98486   1.000
    H78     H    0.09369   0.96869   0.96954   1.000
    H79     H    0.59370   0.96866   0.96957   1.000
    H80     H    0.13514   0.99903   0.09444   1.000
    H81     H    0.63515   0.99900   0.09447   1.000
    H82     H    0.06557   0.06179   0.06071   1.000
    H83     H    0.56559   0.06176   0.06070   1.000
    H84     H    0.05520   0.97687   0.11205   1.000
    H85     H    0.55521   0.97684   0.11208   1.000
    H86     H    0.41814   0.78177   0.78875   1.000
    H87     H    0.91817   0.78180   0.78874   1.000
    H88     H    0.46292   0.85781   0.59583   1.000
    H89     H    0.96291   0.85778   0.59500   1.000
    H90     H    0.12207   0.78946   0.76325   1.000
    H91     H    0.62206   0.78947   0.76331   1.000
    C92     C    0.58209   0.70820   0.19497   1.000
    C93     C    0.03358   0.71319   0.23680   1.000
    C94     C    0.53357   0.71317   0.23686   1.000
    C95     C    0.46904   0.73447   0.20832   1.000
    C96     C    0.30218   0.22853   0.58442   1.000
    C97     C    0.80222   0.22852   0.58443   1.000
    C98     C    0.26495   0.16006   0.56524   1.000
    C99     C    0.76498   0.16005   0.56524   1.000
    C100    C    0.25650   0.09841   0.60916   1.000
    C101    C    0.75651   0.09840   0.60916   1.000
    C102    C    0.28735   0.10743   0.67905   1.000
    C103    C    0.78736   0.10743   0.67905   1.000
    C104    C    0.32359   0.17698   0.70268   1.000
    C105    C    0.82361   0.17697   0.70269   1.000
    C106    C    0.33120   0.23699   0.65483   1.000
    C107    C    0.83123   0.23697   0.65483   1.000
    C108    C    0.35007   0.18755   0.77763   1.000
    C109    C    0.85008   0.18753   0.77764   1.000
    C110    C    0.41791   0.20821   0.80500   1.000
    C111    C    0.91792   0.20820   0.80504   1.000
    C112    C    0.46645   0.21320   0.76313   1.000
    C113    C    0.96646   0.21318   0.76315   1.000
    C114    C    0.03100   0.23449   0.79169   1.000
    C115    C    0.53099   0.23451   0.79167   1.000
    C116    C    0.05081   0.25114   0.86282   1.000
    C117    C    0.55081   0.25114   0.86280   1.000
    C118    C    0.00522   0.24382   0.90472   1.000
    C119    C    0.50522   0.24383   0.90470   1.000
    Cl120   Cl   0.09042   0.24063   0.73989   1.000
    C121    C    0.43785   0.22217   0.87804   1.000
    C122    C    0.93785   0.22216   0.87805   1.000
    C123    C    0.39143   0.21359   0.92227   1.000
    C124    C    0.89143   0.21359   0.92227   1.000
    C125    C    0.32624   0.19073   0.89370   1.000
    C126    C    0.82623   0.19072   0.89372   1.000
    C127    C    0.21957   0.14692   0.91370   1.000
    C128    C    0.71957   0.14691   0.91370   1.000
    C129    C    0.18614   0.13884   0.97487   1.000
    C130    C    0.68613   0.13884   0.97487   1.000
    C131    C    0.30619   0.17816   0.82196   1.000
    C132    C    0.80619   0.17815   0.82196   1.000
    C133    C    0.41174   0.22915   0.99748   1.000
    C134    C    0.91172   0.22915   0.99748   1.000
    C135    C    0.41779   0.16539   0.04645   1.000
    C136    C    0.91778   0.16539   0.04645   1.000
    C137    C    0.40393   0.08410   0.02583   1.000
    C138    C    0.90392   0.08409   0.02583   1.000
    C139    C    0.40874   0.02271   0.07329   1.000
    C140    C    0.90872   0.02271   0.07330   1.000
    C141    C    0.42869   0.04005   0.14439   1.000
    C142    C    0.92868   0.04006   0.14440   1.000
    C143    C    0.44376   0.11747   0.16708   1.000
    C144    C    0.94375   0.11748   0.16709   1.000
    C145    C    0.43857   0.18180   0.11898   1.000
    C146    C    0.93856   0.18180   0.11898   1.000
    C147    C    0.45396   0.26266   0.14050   1.000
    C148    C    0.95395   0.26266   0.14050   1.000
    C149    C    0.44756   0.32376   0.09203   1.000
    C150    C    0.94755   0.32376   0.09203   1.000
    C151    C    0.42563   0.30782   0.02088   1.000
    C152    C    0.92562   0.30782   0.02088   1.000
    C153    C    0.43455   0.44843   0.99159   1.000
    C154    C    0.93454   0.44842   0.99159   1.000
    C155    C    0.41844   0.49942   0.92703   1.000
    C156    C    0.91843   0.49941   0.92702   1.000
    C157    C    0.47693   0.28405   0.21461   1.000
    C158    C    0.97692   0.28406   0.21460   1.000
    C159    C    0.04484   0.29375   0.24245   1.000
    C160    C    0.54485   0.29375   0.24246   1.000
    C161    C    0.06644   0.31962   0.31067   1.000
    C162    C    0.56644   0.31961   0.31068   1.000
    C163    C    0.01997   0.33647   0.35151   1.000
    C164    C    0.51997   0.33644   0.35152   1.000
    C165    C    0.45218   0.32483   0.32476   1.000
    C166    C    0.95218   0.32487   0.32475   1.000
    C167    C    0.43091   0.29804   0.25665   1.000
    C168    C    0.93090   0.29806   0.25665   1.000
    C169    C    0.19787   0.72855   0.41549   1.000
    C170    C    0.69785   0.72855   0.41553   1.000
    C171    C    0.23512   0.66013   0.43472   1.000
    C172    C    0.73510   0.66013   0.43476   1.000
    C173    C    0.24356   0.59851   0.39085   1.000
    C174    C    0.74355   0.59852   0.39089   1.000
    C175    C    0.21266   0.60749   0.32090   1.000
    C176    C    0.71265   0.60750   0.32100   1.000
    C177    C    0.17641   0.67699   0.29729   1.000
    C178    C    0.67640   0.67700   0.29732   1.000
    C179    C    0.16883   0.73697   0.34509   1.000
    C180    C    0.66881   0.73698   0.34513   1.000
    C181    C    0.14992   0.68755   0.22234   1.000
    C182    C    0.64991   0.68755   0.22237   1.000
    C183    C    0.08210   0.70822   0.19494   1.000
    C184    C    0.96905   0.73450   0.20831   1.000
    C185    C    0.44924   0.75112   0.13718   1.000
    C186    C    0.94925   0.75116   0.13717   1.000
    C187    C    0.49482   0.74383   0.09520   1.000
    C188    C    0.99482   0.74386   0.09526   1.000
    C189    C    0.06217   0.72219   0.12192   1.000
    C190    C    0.56216   0.72217   0.12194   1.000
    C191    C    0.10858   0.71363   0.07769   1.000
    C192    C    0.60857   0.71361   0.07770   1.000
    C193    C    0.17374   0.69074   0.10624   1.000
    C194    C    0.67374   0.69074   0.10627   1.000
    C195    C    0.28037   0.64693   0.08632   1.000
    C196    C    0.78037   0.64693   0.08635   1.000
    C197    C    0.31380   0.63883   0.02516   1.000
    C198    C    0.81381   0.63883   0.02519   1.000
    C199    C    0.19378   0.67816   0.17801   1.000
    C200    C    0.69378   0.67817   0.17800   1.000
    C201    C    0.08827   0.72921   0.00247   1.000
    C202    C    0.58827   0.72919   0.00250   1.000
    C203    C    0.08222   0.66548   0.95354   1.000
    C204    C    0.58221   0.66546   0.95357   1.000
    C205    C    0.09606   0.58419   0.97421   1.000
    C206    C    0.59607   0.58417   0.97424   1.000
    C207    C    0.09127   0.52282   0.92679   1.000
    C208    C    0.59128   0.52280   0.92681   1.000
    C209    C    0.07134   0.54019   0.85567   1.000
    C210    C    0.57134   0.54017   0.85500   1.000
    C211    C    0.05627   0.61760   0.83294   1.000
    C212    C    0.55625   0.61757   0.83296   1.000
    C213    C    0.06144   0.68190   0.88100   1.000
    C214    C    0.56143   0.68188   0.88103   1.000
    C215    C    0.04604   0.76275   0.85943   1.000
    C216    C    0.54601   0.76272   0.85946   1.000
    C217    C    0.05242   0.82382   0.90786   1.000
    C218    C    0.55241   0.82380   0.90789   1.000
    C219    C    0.07437   0.80789   0.97902   1.000
    C220    C    0.57436   0.80787   0.97905   1.000
    C221    C    0.06541   0.94845   0.00826   1.000
    C222    C    0.56541   0.94842   0.00829   1.000
    C223    C    0.08149   0.99942   0.07280   1.000
    C224    C    0.58150   0.99939   0.07284   1.000
    C225    C    0.02305   0.78410   0.78530   1.000
    C226    C    0.52303   0.78408   0.78530   1.000
    C227    C    0.45511   0.79382   0.75751   1.000
    C228    C    0.95513   0.79384   0.75749   1.000
    C229    C    0.43353   0.81962   0.68924   1.000
    C230    C    0.93354   0.81963   0.68922   1.000
    C231    C    0.48000   0.83636   0.64835   1.000
    C232    C    0.97999   0.83635   0.64832   1.000
    C233    C    0.04777   0.82462   0.67503   1.000
    C234    C    0.54777   0.82464   0.67508   1.000
    C235    C    0.06906   0.79793   0.74318   1.000
    C236    C    0.56904   0.79794   0.74323   1.000
    Cl237   Cl   0.59040   0.24065   0.73986   1.000
    Cl238   Cl   0.43484   0.96091   0.20325   1.000
    Cl239   Cl   0.93483   0.96091   0.20326   1.000
    Cl240   Cl   0.40964   0.74058   0.26013   1.000
    Cl241   Cl   0.90966   0.74061   0.26013   1.000
    Cl242   Cl   0.06521   0.46109   0.79687   1.000
    Cl243   Cl   0.56521   0.46107   0.79680   1.000
    O244    O    0.28363   0.18380   0.93825   1.000
    O245    O    0.78362   0.18379   0.93825   1.000
    O246    O    0.41660   0.36660   0.97171   1.000
    O247    O    0.91660   0.36659   0.97170   1.000
    O248    O    0.21635   0.68380   0.06172   1.000
    O249    O    0.71635   0.68380   0.06175   1.000
    O250    O    0.08340   0.86664   0.02817   1.000
    O251    O    0.58340   0.86661   0.02800   1.000
loop_
    _geom_bond_atom_site_label_1
    _geom_bond_atom_site_label_2
    _geom_bond_distance
    _geom_bond_site_symmetry_2
    _ccdc_geom_bond_type
    H60    C197      1.11645      .   S
    H18    C129      0.94935  1_554   S
    H19    C130      0.94924  1_554   S
    H61    C198      1.11670      .   S
    C201   C191      1.48573      .   S
    C201   C203      1.42402  1_554   S
    C201   C219      1.39725  1_554   S
    C202   C192      1.48535      .   S
    C202   C204      1.42400  1_554   S
    C202   C220      1.39724  1_554   S
    C221   O250      1.44249      .   S
    C221   C223      1.51315      .   S
    C221   H78       1.10310  1_554   S
    C221   H76       1.10343  1_554   S
    C222   O251      1.44164      .   S
    C222   C224      1.51328      .   S
    C222   H79       1.10306  1_554   S
    C222   H77       1.10332  1_554   S
    H30    C153      1.10330  1_554   S
    H31    C154      1.10329  1_554   S
    C151   C149      1.41460      .   S
    C151   O246      1.36449  1_554   S
    C151   C133      1.39702  1_554   S
    C152   C150      1.41461      .   S
    C152   O247      1.36460  1_554   S
    C152   C134      1.39703  1_554   S
    C197   H62       1.09818      .   S
    C197   C195      1.51359      .   S
    C197   H64       1.09784  1_554   S
    C198   H63       1.09818      .   S
    C198   C196      1.51358      .   S
    C198   H65       1.09784  1_554   S
    C138   C136      1.42313      .   S
    C138   C140      1.37657      .   S
    C138   H23       1.08901  1_554   S
    C137   C135      1.42312      .   S
    C137   C139      1.37647      .   S
    C137   H22       1.08900  1_554   S
    O251   C220      1.36185  1_554   S
    O250   C219      1.36460  1_554   S
    H69    C206      1.08850  1_554   S
    H68    C205      1.08905  1_554   S
    H33    C154      1.10287  1_554   S
    H32    C153      1.10297  1_554   S
    H55    C188      1.08909      .   S
    H54    C187      1.08758      .   S
    C135   C145      1.43915      .   S
    C135   C133      1.42413  1_554   S
    C136   C146      1.43917      .   S
    C136   C134      1.42412  1_554   S
    H24    C139      1.08957  1_565   S
    H25    C140      1.08959  1_565   S
    H83    C224      1.09855  1_545   S
    H82    C223      1.09836  1_545   S
    O248   C195      1.44255      .   S
    O248   C193      1.36603      .   S
    O249   C196      1.44255      .   S
    O249   C194      1.36608      .   S
    C223   H80       1.09785      .   S
    C223   H84       1.09728      .   S
    C224   H81       1.09785      .   S
    C224   H85       1.09708      .   S
    C139   C141      1.41411      .   S
    C140   C142      1.41413      .   S
    C191   C193      1.39565      .   S
    C191   C189      1.42518      .   S
    C192   C194      1.39569      .   S
    C192   C190      1.42539      .   S
    C195   H58       1.10358      .   S
    C195   H56       1.10200      .   S
    C196   H59       1.10339      .   S
    C196   H57       1.10203      .   S
    C150   H29       1.08815      .   S
    C150   C148      1.38446      .   S
    C149   H28       1.08814      .   S
    C149   C147      1.38449      .   S
    C187   C190      1.42288      .   S
    C187   C185      1.37643      .   S
    C188   C189      1.42265  1_655   S
    C188   C186      1.37534      .   S
    C193   C199      1.41263      .   S
    C194   C200      1.41185      .   S
    H53    C186      1.08814      .   S
    H52    C185      1.08813      .   S
    C145   C147      1.42551      .   S
    C145   C143      1.42079      .   S
    C146   C148      1.42553      .   S
    C146   C144      1.42086      .   S
    C189   C183      1.43947      .   S
    C190   C92       1.43962      .   S
    C186   C184      1.41207      .   S
    C185   C95       1.41204      .   S
    C148   C158      1.49059      .   S
    C147   C157      1.49074      .   S
    C141   C143      1.37709      .   S
    C141   Cl238     1.74420  1_545   S
    C142   C144      1.37712      .   S
    C142   Cl239     1.74416  1_545   S
    C143   H26       1.08852      .   S
    C144   H27       1.08761      .   S
    C200   H67       1.08837      .   S
    C200   C182      1.38789      .   S
    C199   H66       1.08818      .   S
    C199   C181      1.38722      .   S
    C183   C181      1.42984      .   S
    C183   C93       1.42076      .   S
    C92    C182      1.42983      .   S
    C92    C94       1.42127      .   S
    C184   C93       1.37685  1_655   S
    C184   Cl241     1.74749      .   S
    C95    C94       1.37702      .   S
    C95    Cl240     1.74746      .   S
    H40    C159      1.08973      .   S
    H41    C160      1.08976      .   S
    C158   C159      1.40083  1_655   S
    C158   C168      1.39894      .   S
    C157   C160      1.40080      .   S
    C157   C167      1.39882      .   S
    C181   C177      1.48398      .   S
    C182   C178      1.48396      .   S
    H44    C167      1.08958      .   S
    H45    C168      1.08959      .   S
    C93    H50       1.08847      .   S
    C94    H51       1.08770      .   S
    C159   C161      1.40142      .   S
    C160   C162      1.40136      .   S
    C168   C166      1.40336      .   S
    C167   C165      1.40345      .   S
    H46    C175      1.08943      .   S
    H47    C176      1.09020      .   S
    C177   C175      1.40190      .   S
    C177   C179      1.40503      .   S
    C178   C176      1.40222      .   S
    C178   C180      1.40514      .   S
    C161   C163      1.39759      .   S
    C162   C164      1.39765      .   S
    C175   C173      1.40977      .   S
    C176   C174      1.40868      .   S
    C166   C163      1.39833  1_655   S
    C165   C164      1.39827      .   S
    H48    C179      1.09003      .   S
    H49    C180      1.09003      .   S
    C179   C169      1.40775      .   S
    C180   C170      1.40773      .   S
    C163   H42       1.08793      .   S
    C164   H43       1.08792      .   S
    C173   C171      1.37656      .   S
    C174   C172      1.37653      .   S
    C169   C171      1.38011      .   S
    C170   C172      1.38010      .   S
    C99    C97       1.38006      .   S
    C99    C101      1.37663      .   S
    C98    C96       1.38004      .   S
    C98    C100      1.37662      .   S
    C96    C106      1.40795      .   S
    C97    C107      1.40774      .   S
    H89    C232      1.10197      .   S
    H88    C231      1.08789      .   S
    C100   C102      1.40863      .   S
    C101   C103      1.40858      .   S
    C232   C233      1.39830  1_655   S
    C232   C230      1.39751      .   S
    C231   C234      1.39831      .   S
    C231   C229      1.39760      .   S
    C106   H2        1.09006      .   S
    C106   C104      1.40506      .   S
    C107   H3        1.09008      .   S
    C107   C105      1.40524      .   S
    C233   C235      1.40333      .   S
    C234   C236      1.40337      .   S
    C103   C105      1.40227      .   S
    C103   H1        1.09031      .   S
    C102   C104      1.40226      .   S
    C102   H0        1.09028      .   S
    C230   C228      1.40159      .   S
    C229   C227      1.40163      .   S
    C104   C108      1.48408      .   S
    C105   C109      1.48405      .   S
    H4     C112      1.08766      .   S
    H5     C113      1.08768      .   S
    Cl237  C115      1.74752      .   S
    Cl120  C114      1.74749      .   S
    C235   H90       1.08943      .   S
    C235   C225      1.39887      .   S
    C236   H91       1.08943      .   S
    C236   C226      1.39836      .   S
    C228   C225      1.40084  1_655   S
    C228   H87       1.08961      .   S
    C227   C226      1.40069      .   S
    C227   H86       1.08965      .   S
    C112   C115      1.37705      .   S
    C112   C110      1.42101      .   S
    C113   C114      1.37704  1_655   S
    C113   C111      1.42140      .   S
    C108   C110      1.42978      .   S
    C108   C131      1.38726      .   S
    C109   C111      1.42986      .   S
    C109   C132      1.38721      .   S
    H72    C211      1.08853      .   S
    H73    C212      1.08837      .   S
    C225   C215      1.49072      .   S
    C226   C216      1.49129      .   S
    C115   C117      1.41204      .   S
    C114   C116      1.41206      .   S
    Cl243  C210      1.73603      .   S
    Cl242  C209      1.74381      .   S
    H21    C132      1.08819      .   S
    H20    C131      1.08821      .   S
    C110   C121      1.43999      .   S
    C111   C122      1.43943      .   S
    C132   C126      1.41259      .   S
    C131   C125      1.41222      .   S
    C211   C209      1.37705      .   S
    C211   C213      1.42079      .   S
    C212   C210      1.37328      .   S
    C212   C214      1.42089      .   S
    C210   C208      1.42708      .   S
    C209   C207      1.41425      .   S
    C215   C213      1.42555      .   S
    C215   C217      1.38445      .   S
    C216   C214      1.42557      .   S
    C216   C218      1.38444      .   S
    C117   H7        1.08813      .   S
    C117   C119      1.37527      .   S
    C116   H6        1.08816      .   S
    C116   C118      1.37535      .   S
    H11    C128      1.10237      .   S
    H10    C127      1.10209      .   S
    C121   C119      1.42262      .   S
    C121   C123      1.42518      .   S
    C122   C118      1.42268  1_655   S
    C122   C124      1.42510      .   S
    C213   C203      1.43915      .   S
    C214   C204      1.43917      .   S
    H38    C155      1.09718      .   S
    H39    C156      1.09706      .   S
    H74    C217      1.08810      .   S
    H75    C218      1.08813      .   S
    H12    C127      1.10363      .   S
    H13    C128      1.10364      .   S
    C125   C123      1.39570      .   S
    C125   O244      1.36638      .   S
    C126   C124      1.39560      .   S
    C126   O245      1.36612      .   S
    C119   H9        1.08901      .   S
    C118   H8        1.08902      .   S
    H35    C156      1.09783      .   S
    H34    C155      1.09787      .   S
    C217   C219      1.41463      .   S
    C218   C220      1.41466      .   S
    C127   O244      1.44249      .   S
    C127   C129      1.51348      .   S
    C128   O245      1.44250      .   S
    C128   C130      1.51347      .   S
    C124   C134      1.48570      .   S
    C123   C133      1.48570      .   S
    C207   H70       1.08929      .   S
    C207   C205      1.37643      .   S
    C208   H71       1.08929      .   S
    C208   C206      1.37654      .   S
    C156   H37       1.09838      .   S
    C156   C154      1.51318      .   S
    C155   H36       1.09837      .   S
    C155   C153      1.51301      .   S
    C203   C205      1.42312      .   S
    C204   C206      1.42314      .   S
    H17    C130      1.09817      .   S
    H16    C129      1.09814      .   S
    O247   C154      1.44255      .   S
    O246   C153      1.44250      .   S
    C129   H14       1.09810      .   S
    C130   H15       1.09812      .   S
