# CIF file generated by openbabel 2.4.90, see http://openbabel.sf.net
data_I
_chemical_name_common ''
_cell_length_a 20.521
_cell_length_b 16.616
_cell_length_c 19.798
_cell_angle_alpha 89.965
_cell_angle_beta 101.651
_cell_angle_gamma 90.041
_space_group_name_H-M_alt 'P 1'
_space_group_name_Hall 'P 1'
loop_
    _symmetry_equiv_pos_as_xyz
    x,y,z
loop_
    _atom_site_label
    _atom_site_type_symbol
    _atom_site_fract_x
    _atom_site_fract_y
    _atom_site_fract_z
    _atom_site_occupancy
    C0      C    0.31131   0.29003   0.53260   1.000
    C1      C    0.81135   0.29002   0.53260   1.000
    C2      C    0.21833   0.02432   0.58570   1.000
    C3      C    0.71834   0.02433   0.58572   1.000
    C4      C    0.36122   0.82981   0.65980   1.000
    C5      C    0.86123   0.82981   0.65983   1.000
    C6      C    0.09826   0.84191   0.63242   1.000
    C7      C    0.59827   0.84196   0.63249   1.000
    C8      C    0.13875   0.32979   0.34007   1.000
    C9      C    0.63875   0.32978   0.34009   1.000
    C10     C    0.40166   0.34237   0.36724   1.000
    C11     C    0.90166   0.34242   0.36723   1.000
    C12     C    0.18877   0.79003   0.46728   1.000
    C13     C    0.68875   0.79002   0.46731   1.000
    C14     C    0.28174   0.52446   0.41428   1.000
    C15     C    0.78173   0.52447   0.41430   1.000
