# CIF file generated by openbabel 2.4.90, see http://openbabel.sf.net
data_I
_chemical_name_common ''
_cell_length_a 20.521
_cell_length_b 16.616
_cell_length_c 19.798
_cell_angle_alpha 89.965
_cell_angle_beta 101.651
_cell_angle_gamma 90.041
_space_group_name_H-M_alt 'P 1'
_space_group_name_Hall 'P 1'
loop_
    _symmetry_equiv_pos_as_xyz
    x,y,z
loop_
    _atom_site_label
    _atom_site_type_symbol
    _atom_site_fract_x
    _atom_site_fract_y
    _atom_site_fract_z
    _atom_site_occupancy
    N0      N    0.39786   0.23147   0.96590   1.000
    N1      N    0.89786   0.23147   0.96590   1.000
    N2      N    0.60213   0.73149   0.03380   1.000
    N3      N    0.10213   0.73150   0.03377   1.000
    Zr4     Zr   0.70798   0.87355   0.58125   1.000
    O5      O    0.76281   0.00999   0.68146   1.000
    O6      O    0.67785   0.80947   0.40943   1.000
    O7      O    0.85387   0.82583   0.71770   1.000
    O8      O    0.64778   0.82797   0.71252   1.000
    Zr9     Zr   0.29203   0.37370   0.41862   1.000
    O10     O    0.23721   0.51010   0.31839   1.000
    O11     O    0.32217   0.30954   0.59041   1.000
    O12     O    0.14613   0.32589   0.28213   1.000
    O13     O    0.35221   0.32812   0.28728   1.000
    Zr14    Zr   0.79204   0.37371   0.41863   1.000
    O15     O    0.82218   0.30954   0.59042   1.000
    O16     O    0.73721   0.51010   0.31841   1.000
    O17     O    0.85221   0.32813   0.28729   1.000
    O18     O    0.64613   0.32590   0.28214   1.000
    Zr19    Zr   0.20798   0.87354   0.58122   1.000
    O20     O    0.35387   0.82582   0.71769   1.000
    O21     O    0.17786   0.80947   0.40940   1.000
    O22     O    0.14778   0.82796   0.71248   1.000
    O23     O    0.26281   0.00998   0.68144   1.000
loop_
    _geom_bond_atom_site_label_1
    _geom_bond_atom_site_label_2
    _geom_bond_distance
    _geom_bond_site_symmetry_2
    _ccdc_geom_bond_type
    Zr4    O5        3.07268  1_565   S
    N1     O5        6.82957      .   S
    Zr4    O6        3.49884      .   S
    N2     O6        7.39871      .   S
    Zr4    O7        3.69096      .   S
    N3     O7        7.39545  1_454   S
    Zr4    O8        3.18545      .   S
    N2     O8        6.80419  1_554   S
    Zr9    O10       3.07177      .   S
    N3     O10       6.83009      .   S
    Zr9    O11       3.49770      .   S
    N0     O11       7.39494      .   S
    Zr9    O12       3.69172      .   S
    N1     O12       7.39806  1_656   S
    Zr9    O13       3.18750      .   S
    N0     O13       6.80906  1_556   S
    Zr14   O15       3.49763      .   S
    N1     O15       7.39482      .   S
    Zr14   O16       3.07164      .   S
    N2     O16       6.82992      .   S
    Zr14   O17       3.18762      .   S
    N1     O17       6.80917  1_556   S
    Zr14   O18       3.69184      .   S
    N0     O18       7.39828  1_556   S
    Zr19   O20       3.69117      .   S
    N2     O20       7.39594  1_554   S
    Zr19   O21       3.49874      .   S
    N3     O21       7.39851      .   S
    Zr19   O22       3.18540      .   S
    N3     O22       6.80436  1_554   S
    Zr19   O23       3.07290  1_565   S
    N0     O23       6.82993      .   S
