# CIF file generated by openbabel 2.4.90, see http://openbabel.sf.net
data_I
_chemical_name_common ''
_cell_length_a 13.828
_cell_length_b 15.638
_cell_length_c 15.641
_cell_angle_alpha 90.018
_cell_angle_beta 90.001
_cell_angle_gamma 89.957
_space_group_name_H-M_alt 'P 1'
_space_group_name_Hall 'P 1'
loop_
    _symmetry_equiv_pos_as_xyz
    x,y,z
loop_
    _atom_site_label
    _atom_site_type_symbol
    _atom_site_fract_x
    _atom_site_fract_y
    _atom_site_fract_z
    _atom_site_occupancy
    Mc0     Mc   0.25118   0.12154   0.12149   1.000
    Mc1     Mc   0.74879   0.12158   0.12161   1.000
    Mc2     Mc   0.24885   0.62159   0.37837   1.000
    Mc3     Mc   0.75114   0.62155   0.37847   1.000
    Mc4     Mc   0.24884   0.37847   0.62149   1.000
    Mc5     Mc   0.75113   0.37842   0.62156   1.000
    Mc6     Mc   0.50001   0.11303   0.88692   1.000
