# CIF file generated by openbabel 2.4.90, see http://openbabel.sf.net
data_I
_chemical_name_common ''
_cell_length_a 13.828
_cell_length_b 15.638
_cell_length_c 15.641
_cell_angle_alpha 90.018
_cell_angle_beta 90.001
_cell_angle_gamma 89.957
_space_group_name_H-M_alt 'P 1'
_space_group_name_Hall 'P 1'
loop_
    _symmetry_equiv_pos_as_xyz
    x,y,z
loop_
    _atom_site_label
    _atom_site_type_symbol
    _atom_site_fract_x
    _atom_site_fract_y
    _atom_site_fract_z
    _atom_site_occupancy
    H0      H    0.49997   0.40681   0.59317   1.000
    H1      H    0.50001   0.59319   0.40678   1.000
    H2      H    1.00000   0.90690   0.90685   1.000
    H3      H    0.00002   0.09311   0.09312   1.000
    H4      H    0.34406   0.23726   0.76280   1.000
    H5      H    0.34397   0.76289   0.23718   1.000
    H6      H    0.84405   0.73729   0.73717   1.000
    H7      H    0.84395   0.26286   0.26278   1.000
    H8      H    0.15593   0.26273   0.26279   1.000
    H9      H    0.15603   0.73715   0.73720   1.000
    H10     H    0.65592   0.76275   0.23716   1.000
    H11     H    0.65601   0.23712   0.76278   1.000
    C12     C    0.50004   0.22899   0.77098   1.000
    C13     C    0.49999   0.35761   0.64236   1.000
    C14     C    0.49994   0.77102   0.22897   1.000
    C15     C    0.49999   0.64239   0.35759   1.000
    C16     C    0.00005   0.72902   0.72898   1.000
    C17     C    0.00002   0.85769   0.85764   1.000
    C18     C    0.99996   0.27099   0.27098   1.000
    C19     C    1.00000   0.14233   0.14233   1.000
    C20     C    0.41292   0.26112   0.73888   1.000
    C21     C    0.41265   0.32572   0.67420   1.000
    C22     C    0.41285   0.73895   0.26107   1.000
    C23     C    0.41262   0.67431   0.32567   1.000
    C24     C    0.91291   0.76116   0.76108   1.000
    C25     C    0.91265   0.82578   0.82573   1.000
    C26     C    0.82071   0.85617   0.85611   1.000
    C27     C    0.91283   0.23892   0.23888   1.000
    C28     C    0.91260   0.17426   0.17426   1.000
    C29     C    0.08706   0.23885   0.23888   1.000
    C30     C    0.08733   0.17424   0.17423   1.000
    C31     C    0.08715   0.76109   0.76109   1.000
    C32     C    0.08738   0.82575   0.82571   1.000
    C33     C    0.17929   0.85611   0.85607   1.000
    C34     C    0.58706   0.73888   0.26107   1.000
    C35     C    0.58733   0.67429   0.32570   1.000
    C36     C    0.58713   0.26105   0.73888   1.000
    C37     C    0.58736   0.32570   0.67428   1.000
    N38     N    0.71417   0.92385   0.92390   1.000
    N39     N    0.80897   0.91709   0.91719   1.000
    N40     N    0.73332   0.82660   0.82647   1.000
    N41     N    0.66682   0.86870   0.86861   1.000
    N42     N    0.28578   0.92386   0.92372   1.000
    N43     N    0.19098   0.91718   0.91699   1.000
    N44     N    0.26671   0.82645   0.82648   1.000
    N45     N    0.33317   0.86856   0.86856   1.000
loop_
    _geom_bond_atom_site_label_1
    _geom_bond_atom_site_label_2
    _geom_bond_distance
    _geom_bond_site_symmetry_2
    _ccdc_geom_bond_type
    H3     C19       1.08829  1_455   S
    C19    C30       1.39901  1_655   S
    C19    C28       1.39939      .   S
    C30    C29       1.42930      .   S
    C28    C27       1.42945      .   S
    C14    C34       1.39820      .   S
    C14    C22       1.39825      .   S
    H10    C34       1.08926      .   S
    H5     C22       1.08925      .   S
    C29    H8        1.08922      .   S
    C29    C18       1.39805  1_455   S
    C27    H7        1.08927      .   S
    C27    C18       1.39853      .   S
    C34    C35       1.42932      .   S
    C22    C23       1.42946      .   S
    C23    C15       1.39904      .   S
    C35    C15       1.39903      .   S
    C15    H1        1.08823      .   S
    H0     C13       1.08820      .   S
    C13    C21       1.39873      .   S
    C13    C37       1.39902      .   S
    C21    C20       1.42994      .   S
    C37    C36       1.42952      .   S
    C16    C24       1.39845  1_455   S
    C16    C31       1.39818      .   S
    H6     C24       1.08921      .   S
    H9     C31       1.08924      .   S
    C36    H11       1.08930      .   S
    C36    C12       1.39825      .   S
    C20    H4        1.08928      .   S
    C20    C12       1.39816      .   S
    C24    C25       1.42929      .   S
    C31    C32       1.42945      .   S
    C32    C33       1.43771      .   S
    C32    C17       1.39901      .   S
    C25    C26       1.43765      .   S
    C25    C17       1.39944  1_655   S
    N40    C26       1.37460      .   S
    N40    N41       1.30854      .   S
    N44    C33       1.37462      .   S
    N44    N45       1.30852      .   S
    C33    N43       1.35864      .   S
    C26    N39       1.35865      .   S
    C17    H2        1.08829  1_455   S
    N45    N42       1.38580      .   S
    N41    N38       1.38583      .   S
    N43    N42       1.31925      .   S
    N39    N38       1.31925      .   S
