# CIF file generated by openbabel 2.4.90, see http://openbabel.sf.net
data_I
_chemical_name_common ''
_cell_length_a 13.828
_cell_length_b 15.638
_cell_length_c 15.641
_cell_angle_alpha 90.018
_cell_angle_beta 90.001
_cell_angle_gamma 89.957
_space_group_name_H-M_alt 'P 1'
_space_group_name_Hall 'P 1'
loop_
    _symmetry_equiv_pos_as_xyz
    x,y,z
loop_
    _atom_site_label
    _atom_site_type_symbol
    _atom_site_fract_x
    _atom_site_fract_y
    _atom_site_fract_z
    _atom_site_occupancy
    C0      C    0.50003   0.16291   0.83706   1.000
    C1      C    0.32073   0.35612   0.64385   1.000
    C2      C    0.32072   0.64394   0.35605   1.000
    C3      C    0.82069   0.14390   0.14390   1.000
    C4      C    0.17927   0.14385   0.14385   1.000
    C5      C    0.67925   0.64388   0.35610   1.000
    C6      C    0.67926   0.35607   0.64390   1.000
    N7      N    0.54865   0.07238   0.92779   1.000
    N8      N    0.58108   0.12894   0.87133   1.000
    N9      N    0.21426   0.42383   0.57605   1.000
    N10     N    0.30905   0.41705   0.58280   1.000
    N11     N    0.23331   0.32661   0.67345   1.000
    N12     N    0.16686   0.36873   0.63130   1.000
    N13     N    0.21431   0.57616   0.42374   1.000
    N14     N    0.30909   0.58287   0.41696   1.000
    N15     N    0.23328   0.67356   0.32650   1.000
    N16     N    0.16686   0.63143   0.36860   1.000
    N17     N    0.71420   0.07615   0.07624   1.000
    N18     N    0.80900   0.08283   0.08297   1.000
    N19     N    0.73327   0.17356   0.17350   1.000
    N20     N    0.66681   0.13144   0.13142   1.000
    N21     N    0.28581   0.07617   0.07600   1.000
    N22     N    0.19101   0.08293   0.08277   1.000
    N23     N    0.26666   0.17342   0.17348   1.000
    N24     N    0.33316   0.13132   0.13134   1.000
    N25     N    0.78572   0.57617   0.42391   1.000
    N26     N    0.69093   0.58297   0.41717   1.000
    N27     N    0.76667   0.67341   0.32652   1.000
    N28     N    0.83312   0.63130   0.36867   1.000
    N29     N    0.45135   0.07223   0.92750   1.000
    N30     N    0.41896   0.12871   0.87090   1.000
    N31     N    0.78567   0.42385   0.57622   1.000
    N32     N    0.69089   0.41713   0.58299   1.000
    N33     N    0.76670   0.32647   0.67340   1.000
    N34     N    0.83312   0.36860   0.63130   1.000
loop_
    _geom_bond_atom_site_label_1
    _geom_bond_atom_site_label_2
    _geom_bond_distance
    _geom_bond_site_symmetry_2
    _ccdc_geom_bond_type
    N21    N22       1.31932      .   S
    N21    N24       1.38637      .   S
    N17    N18       1.31924      .   S
    N17    N20       1.38592      .   S
    N22    C4        1.35865      .   S
    N18    C3        1.35876      .   S
    N24    N23       1.30855      .   S
    N20    N19       1.30850      .   S
    C4     N23       1.37461      .   S
    C3     N19       1.37463      .   S
    N15    C2        1.37462      .   S
    N15    N16       1.30855      .   S
    N27    C5        1.37458      .   S
    N27    N28       1.30850      .   S
    C2     N14       1.35874      .   S
    C5     N26       1.35868      .   S
    N16    N13       1.38595      .   S
    N28    N25       1.38582      .   S
    N14    N13       1.31927      .   S
    N26    N25       1.31924      .   S
    N9     N10       1.31924      .   S
    N9     N12       1.38574      .   S
    N31    N32       1.31927      .   S
    N31    N34       1.38519      .   S
    N10    C1        1.35869      .   S
    N32    C6        1.35877      .   S
    N34    N33       1.30861      .   S
    N12    N11       1.30859      .   S
    C1     N11       1.37458      .   S
    C6     N33       1.37427      .   S
    C0     N30       1.35052      .   S
    C0     N8        1.35079      .   S
    N30    N29       1.32829      .   S
    N8     N7        1.32836      .   S
    N29    N7        1.34538      .   S
