# CIF file generated by openbabel 2.4.90, see http://openbabel.sf.net
data_I
_chemical_name_common ''
_cell_length_a 13.828
_cell_length_b 15.638
_cell_length_c 15.641
_cell_angle_alpha 90.018
_cell_angle_beta 90.001
_cell_angle_gamma 89.957
_space_group_name_H-M_alt 'P 1'
_space_group_name_Hall 'P 1'
loop_
    _symmetry_equiv_pos_as_xyz
    x,y,z
loop_
    _atom_site_label
    _atom_site_type_symbol
    _atom_site_fract_x
    _atom_site_fract_y
    _atom_site_fract_z
    _atom_site_occupancy
    N0      N    0.99996   0.20648   0.20647   1.000
    N1      N    0.49996   0.70652   0.29347   1.000
    N2      N    0.50002   0.29348   0.70648   1.000
    N3      N    0.00001   0.83823   0.83819   1.000
    Zr4     Zr   0.99999   0.50001   0.49998   1.000
    O5      O    0.99998   0.37763   0.37762   1.000
    O6      O    0.10630   0.46010   0.53985   1.000
    O7      O    0.10631   0.53992   0.46004   1.000
    O8      O    0.89368   0.53991   0.46011   1.000
    O9      O    0.89367   0.46009   0.53992   1.000
    O10     O    0.00001   0.63355   0.63352   1.000
    Zr11    Zr   0.49997   0.91927   0.09499   1.000
    O12     O    0.33090   0.90967   0.99749   1.000
    O13     O    0.39370   0.99954   0.08735   1.000
    O14     O    0.47660   0.99692   0.01015   1.000
    O15     O    0.49996   0.83728   0.16984   1.000
    O16     O    0.60626   0.99955   0.09993   1.000
loop_
    _geom_bond_atom_site_label_1
    _geom_bond_atom_site_label_2
    _geom_bond_distance
    _geom_bond_site_symmetry_2
    _ccdc_geom_bond_type
    Zr4    O5        2.70608      .   S
    N0     O5        3.78483      .   S
    Zr4    O6        1.71416  1_655   S
    N2     O6        6.57296      .   S
    Zr4    O7        1.71555  1_655   S
    N1     O7        6.57506      .   S
    Zr4    O8        1.71417      .   S
    N1     O8        6.57303      .   S
    Zr4    O9        1.71555      .   S
    N2     O9        6.57512      .   S
    Zr4    O10       2.95321  1_655   S
    N3     O10       4.52614      .   S
    Zr11   O12       2.79529  1_554   S
    N3     O12       5.32906      .   S
    Zr11   O13       1.93558      .   S
    N0     O13       6.59981  1_645   S
    Zr11   O14       1.82761      .   S
    N2     O14       6.64744  1_546   S
    Zr11   O15       1.73656      .   S
    N1     O15       2.81469      .   S
    Zr11   O16       1.93517      .   S
    N0     O16       6.55057  1_545   S
