# CIF file generated by openbabel 2.4.90, see http://openbabel.sf.net
data_I
_chemical_name_common ''
_cell_length_a 13.828
_cell_length_b 15.638
_cell_length_c 15.641
_cell_angle_alpha 90.018
_cell_angle_beta 90.001
_cell_angle_gamma 89.957
_space_group_name_H-M_alt 'P 1'
_space_group_name_Hall 'P 1'
loop_
    _symmetry_equiv_pos_as_xyz
    x,y,z
loop_
    _atom_site_label
    _atom_site_type_symbol
    _atom_site_fract_x
    _atom_site_fract_y
    _atom_site_fract_z
    _atom_site_occupancy
    Zr0     Zr   0.63840   0.00002   0.10000   1.000
    Zr1     Zr   0.13852   0.50003   0.49989   1.000
    Zr2     Zr   0.86146   0.49999   0.50007   1.000
    Zr3     Zr   0.36156   0.99998   0.99990   1.000
    Zr4     Zr   0.49995   0.83710   0.16289   1.000
    Zr5     Zr   0.00005   0.66292   0.66289   1.000
    Zr6     Zr   0.99996   0.33709   0.33708   1.000
    Zr7     Zr   0.54863   0.92779   0.07241   1.000
    Zr8     Zr   0.58101   0.87130   0.12900   1.000
    Zr9     Zr   0.04866   0.57237   0.57210   1.000
    Zr10    Zr   0.08109   0.62895   0.62861   1.000
    Zr11    Zr   0.04864   0.42780   0.42759   1.000
    Zr12    Zr   0.08103   0.37130   0.37097   1.000
    Zr13    Zr   0.95132   0.42765   0.42783   1.000
    Zr14    Zr   0.91889   0.37106   0.37136   1.000
    Zr15    Zr   0.95133   0.57221   0.57237   1.000
    Zr16    Zr   0.91895   0.62871   0.62899   1.000
    Zr17    Zr   0.45133   0.92764   0.07210   1.000
    Zr18    Zr   0.41890   0.87107   0.12863   1.000
    O19     O    0.49998   0.92771   0.07226   1.000
    O20     O    0.43512   0.89935   0.10037   1.000
    O21     O    0.40645   0.96381   0.03600   1.000
    O22     O    0.56482   0.89954   0.10071   1.000
    O23     O    0.59351   0.96390   0.08621   1.000
    O24     O    0.45942   0.85409   0.14576   1.000
    O25     O    0.54048   0.85420   0.14595   1.000
    O26     O    0.04050   0.35420   0.35403   1.000
    O27     O    0.95942   0.35407   0.35422   1.000
    O28     O    0.06484   0.39955   0.39928   1.000
    O29     O    0.93510   0.39935   0.39960   1.000
    O30     O    0.99998   0.42772   0.42771   1.000
    O31     O    0.09358   0.46392   0.46374   1.000
    O32     O    0.90639   0.46382   0.46395   1.000
    O33     O    0.09359   0.53620   0.53600   1.000
    O34     O    0.90639   0.53610   0.53622   1.000
    O35     O    1.00000   0.57229   0.57224   1.000
    O36     O    0.06488   0.60066   0.60036   1.000
    O37     O    0.93514   0.60046   0.60068   1.000
    O38     O    0.04057   0.64594   0.64575   1.000
    O39     O    0.95950   0.64582   0.64594   1.000
    N40     N    0.99996   0.20648   0.20647   1.000
    O41     O    0.99996   0.25526   0.25525   1.000
    O42     O    0.28744   0.07981   0.07972   1.000
    O43     O    0.71255   0.07983   0.10486   1.000
    N44     N    0.49996   0.70652   0.29347   1.000
    O45     O    0.49995   0.75529   0.24470   1.000
    O46     O    0.21263   0.57984   0.42009   1.000
    O47     O    0.78736   0.57981   0.42023   1.000
    N48     N    0.50002   0.29348   0.70648   1.000
    O49     O    0.21261   0.42020   0.57973   1.000
    O50     O    0.78735   0.42017   0.57985   1.000
    O51     O    0.45324   0.07457   0.92531   1.000
    N52     N    0.00001   0.83823   0.83819   1.000
    O53     O    0.00003   0.76710   0.76706   1.000
    O54     O    0.16184   0.90008   0.90000   1.000
loop_
    _geom_bond_atom_site_label_1
    _geom_bond_atom_site_label_2
    _geom_bond_distance
    _geom_bond_site_symmetry_2
    _ccdc_geom_bond_type
    Zr17   O19       0.67269      .   S
    Zr7    O19       0.67269      .   S
    Zr17   O20       0.66455      .   S
    Zr18   O20       0.66455      .   S
    Zr17   O21       1.01177      .   S
    Zr3    O21       1.01177  1_556   S
    Zr7    O22       0.66411      .   S
    Zr8    O22       0.66411      .   S
    Zr7    O23       0.86674      .   S
    Zr0    O23       0.86674  1_545   S
    Zr18   O24       0.67537      .   S
    Zr4    O24       0.67537      .   S
    Zr8    O25       0.67542      .   S
    Zr4    O25       0.67542      .   S
    Zr6    O26       0.67538  1_655   S
    Zr12   O26       0.67538      .   S
    Zr6    O27       0.67556      .   S
    Zr14   O27       0.67556      .   S
    Zr12   O28       0.66415      .   S
    Zr11   O28       0.66415      .   S
    Zr14   O29       0.66415      .   S
    Zr13   O29       0.66415      .   S
    Zr11   O30       0.67292  1_455   S
    Zr13   O30       0.67292      .   S
    Zr11   O31       1.01249      .   S
    Zr1    O31       1.01249      .   S
    Zr13   O32       1.01213      .   S
    Zr2    O32       1.01213      .   S
    Zr1    O33       1.01200      .   S
    Zr9    O33       1.01200      .   S
    Zr2    O34       1.01248      .   S
    Zr15   O34       1.01248      .   S
    Zr9    O35       0.67293  1_455   S
    Zr15   O35       0.67293      .   S
    Zr9    O36       0.66434      .   S
    Zr10   O36       0.66434      .   S
    Zr15   O37       0.66416      .   S
    Zr16   O37       0.66416      .   S
    Zr10   O38       0.67538      .   S
    Zr5    O38       0.67538      .   S
    Zr16   O39       0.67560      .   S
    Zr5    O39       0.67560  1_455   S
    N40    O41       1.07874      .   S
    Zr6    O41       1.80960      .   S
    N40    O42       4.86233  1_655   S
    Zr3    O42       2.04078  1_566   S
    N40    O43       4.71738      .   S
    Zr0    O43       1.61758      .   S
    N44    O45       1.07882      .   S
    Zr4    O45       1.80973      .   S
    N44    O46       4.86290      .   S
    Zr1    O46       2.04174      .   S
    N44    O47       4.86231      .   S
    Zr2    O47       2.04118      .   S
    N48    O49       4.86225      .   S
    Zr1    O49       2.04123      .   S
    N48    O50       4.86297      .   S
    Zr2    O50       2.04162      .   S
    N48    O51       4.88506      .   S
    Zr3    O51       2.08127  1_565   S
    N52    O53       1.57293      .   S
    Zr5    O53       2.30373      .   S
    N52    O54       2.62305      .   S
    Zr3    O54       3.53760      .   S
