# CIF file generated by openbabel 2.4.90, see http://openbabel.sf.net
data_I
_chemical_name_common ''
_cell_length_a 14.01
_cell_length_b 16.787
_cell_length_c 16.818
_cell_angle_alpha 103.804
_cell_angle_beta 109.775
_cell_angle_gamma 109.721
_space_group_name_H-M_alt 'P 1'
_space_group_name_Hall 'P 1'
loop_
    _symmetry_equiv_pos_as_xyz
    x,y,z
loop_
    _atom_site_label
    _atom_site_type_symbol
    _atom_site_fract_x
    _atom_site_fract_y
    _atom_site_fract_z
    _atom_site_occupancy
    N0      N    0.24992   0.89218   0.10748   1.000
    N1      N    0.50003   0.50001   0.99997   1.000
    N2      N    0.74990   0.98543   0.01421   1.000
    N3      N    0.25015   0.01460   0.98581   1.000
    N4      N    0.75015   0.10785   0.89253   1.000
    N5      N    0.00004   0.99998   0.50000   1.000
    N6      N    0.00003   0.50002   0.50001   1.000
    N7      N    0.50003   0.50002   0.50001   1.000
    Zr8     Zr   0.45985   0.63941   0.72483   1.000
    O9      O    0.54256   0.74277   0.80731   1.000
    O10     O    0.47000   0.59819   0.80548   1.000
    O11     O    0.32506   0.59730   0.65747   1.000
    O12     O    0.48225   0.59992   0.66317   1.000
    Zr13    Zr   0.28791   0.33897   0.20298   1.000
    O14     O    0.35013   0.38698   0.14302   1.000
    O15     O    0.27762   0.24195   0.14326   1.000
    O16     O    0.13311   0.27486   0.11115   1.000
    Zr17    Zr   0.96004   0.72506   0.64010   1.000
    O18     O    0.97017   0.80566   0.59870   1.000
    O19     O    0.04277   0.80759   0.74335   1.000
    O20     O    0.98242   0.66330   0.60053   1.000
    O21     O    0.82519   0.65767   0.59780   1.000
    Zr22    Zr   0.54021   0.36062   0.27519   1.000
    O23     O    0.45750   0.25726   0.19271   1.000
    O24     O    0.53007   0.40184   0.19452   1.000
    O25     O    0.67500   0.40273   0.34255   1.000
    O26     O    0.51781   0.40011   0.33685   1.000
    Zr27    Zr   0.21235   0.79713   0.66157   1.000
    O28     O    0.15008   0.85703   0.61338   1.000
    O29     O    0.22265   0.85697   0.75853   1.000
    O30     O    0.36716   0.88905   0.72563   1.000
    Zr31    Zr   0.71215   0.66106   0.79704   1.000
    O32     O    0.64993   0.61304   0.85698   1.000
    O33     O    0.86695   0.72517   0.88886   1.000
    O34     O    0.72244   0.75808   0.85675   1.000
    Zr35    Zr   0.04002   0.27499   0.35992   1.000
    O36     O    0.95729   0.19245   0.25667   1.000
    O37     O    0.02990   0.19436   0.40132   1.000
    O38     O    0.01764   0.33674   0.39949   1.000
    O39     O    0.17488   0.34237   0.40222   1.000
    Zr40    Zr   0.78772   0.20291   0.33845   1.000
    O41     O    0.63291   0.11099   0.27439   1.000
    O42     O    0.77741   0.14306   0.24149   1.000
    O43     O    0.84999   0.14299   0.38663   1.000
    O44     O    0.34601   0.38342   0.28983   1.000
    O45     O    0.65404   0.61661   0.71019   1.000
    O46     O    0.84586   0.28981   0.38298   1.000
    O47     O    0.15421   0.71023   0.61704   1.000
loop_
    _geom_bond_atom_site_label_1
    _geom_bond_atom_site_label_2
    _geom_bond_distance
    _geom_bond_site_symmetry_2
    _ccdc_geom_bond_type
    Zr8    O9        1.63844      .   S
    N2     O9        3.94344  1_554   S
    Zr8    O10       1.65002      .   S
    N1     O10       3.96251      .   S
    Zr8    O11       1.61820      .   S
    N6     O11       3.89530      .   S
    Zr8    O12       1.28286      .   S
    N7     O12       2.99213      .   S
    Zr13   O14       1.71319      .   S
    N1     O14       4.08731  1_556   S
    Zr13   O15       1.62638      .   S
    N3     O15       3.90161  1_556   S
    Zr13   O16       1.90054      .   S
    N4     O16       4.66327  1_656   S
    Zr17   O18       1.65015      .   S
    N5     O18       3.96270  1_455   S
    Zr17   O19       1.63850  1_655   S
    N3     O19       3.94362  1_545   S
    Zr17   O20       1.28334      .   S
    N6     O20       2.99333  1_455   S
    Zr17   O21       1.61844      .   S
    N7     O21       3.89587      .   S
    Zr22   O23       1.63843      .   S
    N3     O23       3.94344  1_556   S
    Zr22   O24       1.65029      .   S
    N1     O24       3.96333  1_556   S
    Zr22   O25       1.61821      .   S
    N6     O25       3.89530  1_455   S
    Zr22   O26       1.28287      .   S
    N7     O26       2.99215      .   S
    Zr27   O28       1.71221      .   S
    N5     O28       4.08515      .   S
    Zr27   O29       1.62799      .   S
    N3     O29       3.90504  1_545   S
    Zr27   O30       1.90071      .   S
    N4     O30       4.66354  1_545   S
    Zr31   O32       1.71289      .   S
    N1     O32       4.08645      .   S
    Zr31   O33       1.90057      .   S
    N0     O33       4.66332  1_454   S
    Zr31   O34       1.62634      .   S
    N2     O34       3.90169  1_554   S
    Zr35   O36       1.63855  1_455   S
    N2     O36       3.94363  1_565   S
    Zr35   O37       1.65043      .   S
    N5     O37       3.96355  1_565   S
    Zr35   O38       1.28332      .   S
    N6     O38       2.99326      .   S
    Zr35   O39       1.61843      .   S
    N7     O39       3.89585      .   S
    Zr40   O41       1.90072      .   S
    N0     O41       4.66356  1_565   S
    Zr40   O42       1.62797      .   S
    N2     O42       3.90501  1_565   S
    Zr40   O43       1.71248      .   S
    N5     O43       4.08602  1_465   S
    Zr13   O44       1.27217      .   S
    N7     O44       3.10946      .   S
    Zr31   O45       1.27217      .   S
    N7     O45       3.10944      .   S
    N6     O46       3.10753  1_455   S
    Zr40   O46       1.27132      .   S
    N6     O47       3.10758      .   S
    Zr27   O47       1.27135      .   S
