# CIF file generated by openbabel 2.4.90, see http://openbabel.sf.net
data_I
_chemical_name_common ''
_cell_length_a 14.01
_cell_length_b 16.787
_cell_length_c 16.818
_cell_angle_alpha 103.804
_cell_angle_beta 109.775
_cell_angle_gamma 109.721
_space_group_name_H-M_alt 'P 1'
_space_group_name_Hall 'P 1'
loop_
    _symmetry_equiv_pos_as_xyz
    x,y,z
loop_
    _atom_site_label
    _atom_site_type_symbol
    _atom_site_fract_x
    _atom_site_fract_y
    _atom_site_fract_z
    _atom_site_occupancy
    C0      C    0.28791   0.33897   0.20298   1.000
    C1      C    0.54021   0.36062   0.27519   1.000
    C2      C    0.21235   0.79713   0.66157   1.000
    C3      C    0.96004   0.72506   0.64010   1.000
    C4      C    0.71215   0.66106   0.79704   1.000
    C5      C    0.45985   0.63941   0.72483   1.000
    C6      C    0.78772   0.20291   0.33845   1.000
    C7      C    0.04002   0.27499   0.35992   1.000
    C8      C    0.64880   0.47640   0.10843   1.000
    C9      C    0.12759   0.06364   0.04153   1.000
    C10     C    0.35214   0.48709   0.55120   1.000
    C11     C    0.05776   0.34432   0.16645   1.000
    C12     C    0.85461   0.24910   0.04327   1.000
    C13     C    0.97717   0.11979   0.87446   1.000
    C14     C    0.17617   0.22424   0.00192   1.000
    C15     C    0.29172   0.43058   0.04750   1.000
    C16     C    0.50590   0.16264   0.13839   1.000
    C17     C    0.85157   0.89187   0.52403   1.000
    C18     C    0.37272   0.95897   0.93663   1.000
    C19     C    0.14776   0.44868   0.51176   1.000
    C20     C    0.44246   0.83371   0.65610   1.000
    C21     C    0.64566   0.95700   0.75129   1.000
    C22     C    0.52321   0.12613   0.88050   1.000
    C23     C    0.32414   0.99856   0.77618   1.000
    C24     C    0.20838   0.95227   0.56943   1.000
    C25     C    0.99446   0.86198   0.83780   1.000
    C26     C    0.35127   0.52362   0.89159   1.000
    C27     C    0.87247   0.93639   0.95850   1.000
    C28     C    0.64792   0.51295   0.44882   1.000
    C29     C    0.94229   0.65570   0.83357   1.000
    C30     C    0.14546   0.75091   0.95675   1.000
    C31     C    0.02291   0.88024   0.12556   1.000
    C32     C    0.82390   0.77581   0.99810   1.000
    C33     C    0.70835   0.56943   0.95243   1.000
    C34     C    0.49416   0.83740   0.86164   1.000
    C35     C    0.14850   0.10817   0.47598   1.000
    C36     C    0.62734   0.04107   0.06339   1.000
    C37     C    0.85230   0.55136   0.48820   1.000
    C38     C    0.55760   0.16632   0.34385   1.000
    C39     C    0.35440   0.04303   0.24873   1.000
    C40     C    0.47687   0.87392   0.11950   1.000
    C41     C    0.67593   0.00149   0.22383   1.000
    C42     C    0.79169   0.04776   0.43058   1.000
    C43     C    0.00560   0.13805   0.16222   1.000
    C44     C    0.45920   0.42287   0.12875   1.000
    C45     C    0.47862   0.46285   0.06244   1.000
    C46     C    0.58379   0.48681   0.06070   1.000
    C47     C    0.39309   0.47633   0.00000   1.000
    C48     C    0.34838   0.18208   0.14572   1.000
    C49     C    0.29993   0.09272   0.06779   1.000
    C50     C    0.18097   0.04067   0.01802   1.000
    C51     C    0.37065   0.06217   0.03931   1.000
    C52     C    0.26034   0.38072   0.37646   1.000
    C53     C    0.38411   0.44154   0.43703   1.000
    C54     C    0.46813   0.44759   0.40636   1.000
    C55     C    0.41802   0.49343   0.52932   1.000
    C56     C    0.03631   0.29584   0.09970   1.000
    C57     C    0.92412   0.24267   0.03190   1.000
    C58     C    0.90107   0.17667   0.94969   1.000
    C59     C    0.99281   0.17063   0.93753   1.000
    C60     C    0.10283   0.22790   0.00827   1.000
    C61     C    0.04107   0.87132   0.57742   1.000
    C62     C    0.02157   0.93765   0.53736   1.000
    C63     C    0.91645   0.93947   0.51343   1.000
    C64     C    0.10694   0.99935   0.52361   1.000
    C65     C    0.15190   0.85478   0.81827   1.000
    C66     C    0.20039   0.93265   0.90765   1.000
    C67     C    0.31934   0.98244   0.95966   1.000
    C68     C    0.12966   0.96106   0.93825   1.000
    C69     C    0.23974   0.62329   0.61935   1.000
    C70     C    0.11597   0.56286   0.55848   1.000
    C71     C    0.03205   0.59362   0.55310   1.000
    C72     C    0.08193   0.47062   0.50594   1.000
    C73     C    0.46394   0.90055   0.70462   1.000
    C74     C    0.57616   0.96842   0.75773   1.000
    C75     C    0.59926   0.05072   0.82369   1.000
    C76     C    0.50754   0.06297   0.82971   1.000
    C77     C    0.39747   0.99216   0.77250   1.000
    C78     C    0.54084   0.57710   0.87123   1.000
    C79     C    0.52146   0.53720   0.93760   1.000
    C80     C    0.41627   0.51321   0.93931   1.000
    C81     C    0.60697   0.52368   0.99940   1.000
    C82     C    0.65168   0.81797   0.85428   1.000
    C83     C    0.70013   0.90731   0.93225   1.000
    C84     C    0.81908   0.95935   0.98201   1.000
    C85     C    0.62940   0.93787   0.96071   1.000
    C86     C    0.73972   0.61933   0.62356   1.000
    C87     C    0.61595   0.55850   0.56299   1.000
    C88     C    0.53192   0.55245   0.59366   1.000
    C89     C    0.58204   0.50662   0.47070   1.000
    C90     C    0.96376   0.70419   0.90032   1.000
    C91     C    0.07594   0.75735   0.96812   1.000
    C92     C    0.09900   0.82336   0.05033   1.000
    C93     C    0.00726   0.82940   0.06250   1.000
    C94     C    0.89724   0.77214   0.99176   1.000
    C95     C    0.95901   0.12872   0.42260   1.000
    C96     C    0.97851   0.06238   0.46265   1.000
    C97     C    0.08363   0.06056   0.48658   1.000
    C98     C    0.89314   0.00000   0.47640   1.000
    C99     C    0.84815   0.14527   0.18174   1.000
    C100    C    0.79967   0.06738   0.09238   1.000
    C101    C    0.68072   0.01760   0.04037   1.000
    C102    C    0.87039   0.03897   0.06177   1.000
    C103    C    0.76032   0.37674   0.38070   1.000
    C104    C    0.88409   0.43717   0.44154   1.000
    C105    C    0.96801   0.40641   0.44690   1.000
    C106    C    0.91813   0.52942   0.49409   1.000
    C107    C    0.53613   0.09948   0.29540   1.000
    C108    C    0.42391   0.03162   0.24229   1.000
    C109    C    0.40081   0.94932   0.17632   1.000
    C110    C    0.49253   0.93708   0.17030   1.000
    C111    C    0.60260   0.00788   0.22750   1.000
    C112    C    0.12503   0.28834   0.08927   1.000
    C113    C    0.79042   0.11015   0.87863   1.000
    C114    C    0.37523   0.91103   0.71213   1.000
    C115    C    0.70991   0.12180   0.89019   1.000
    C116    C    0.87504   0.71170   0.91075   1.000
    C117    C    0.20965   0.88987   0.12139   1.000
    C118    C    0.62483   0.08900   0.28788   1.000
    C119    C    0.29016   0.87824   0.10982   1.000
    C120    C    0.36144   0.40101   0.12931   1.000
    C121    C    0.53943   0.41157   0.18026   1.000
    C122    C    0.28945   0.45468   0.99851   1.000
    C123    C    0.28111   0.21153   0.15960   1.000
    C124    C    0.45866   0.22576   0.19415   1.000
    C125    C    0.48626   0.10746   0.08531   1.000
    C126    C    0.44136   0.39774   0.31881   1.000
    C127    C    0.21564   0.34726   0.28867   1.000
    C128    C    0.19884   0.36400   0.41814   1.000
    C129    C    0.13878   0.87063   0.59919   1.000
    C130    C    0.96109   0.82007   0.58906   1.000
    C131    C    0.21056   0.00131   0.54521   1.000
    C132    C    0.21915   0.84094   0.78878   1.000
    C133    C    0.04162   0.80625   0.77470   1.000
    C134    C    0.01405   0.91506   0.89297   1.000
    C135    C    0.05908   0.68112   0.60376   1.000
    C136    C    0.28458   0.71123   0.65308   1.000
    C137    C    0.30116   0.58136   0.63562   1.000
    C138    C    0.63864   0.59903   0.87072   1.000
    C139    C    0.46066   0.58848   0.81978   1.000
    C140    C    0.71061   0.54533   0.00150   1.000
    C141    C    0.71895   0.78849   0.84037   1.000
    C142    C    0.54139   0.77426   0.80589   1.000
    C143    C    0.51379   0.89257   0.91472   1.000
    C144    C    0.55870   0.60230   0.68121   1.000
    C145    C    0.78442   0.65278   0.71135   1.000
    C146    C    0.80122   0.63605   0.58188   1.000
    C147    C    0.86129   0.12939   0.40080   1.000
    C148    C    0.03899   0.17997   0.41096   1.000
    C149    C    0.78951   0.99872   0.45479   1.000
    C150    C    0.78091   0.15910   0.21124   1.000
    C151    C    0.95843   0.19377   0.22530   1.000
    C152    C    0.98601   0.08497   0.10706   1.000
    C153    C    0.94098   0.31892   0.39627   1.000
    C154    C    0.71548   0.28880   0.34693   1.000
    C155    C    0.69890   0.41867   0.36440   1.000
    O156    O    0.43586   0.46959   0.03122   1.000
    O157    O    0.40468   0.49477   0.96965   1.000
    O158    O    0.34127   0.46551   0.99926   1.000
    O159    O    0.70948   0.55738   0.97696   1.000
    O160    O    0.65879   0.53450   0.00045   1.000
    O161    O    0.13950   0.22607   0.00509   1.000
    O162    O    0.11393   0.25812   0.04877   1.000
    O163    O    0.04782   0.19926   0.97290   1.000
    O164    O    0.15428   0.05216   0.02977   1.000
    O165    O    0.24045   0.06670   0.04291   1.000
    O166    O    0.15532   0.00087   0.97813   1.000
    O167    O    0.88936   0.24588   0.03759   1.000
    O168    O    0.98021   0.26925   0.06580   1.000
    O169    O    0.91260   0.20967   0.99079   1.000
    O170    O    0.33529   0.07744   0.05355   1.000
    O171    O    0.42846   0.08481   0.06231   1.000
    O172    O    0.34500   0.02230   0.99948   1.000
    O173    O    0.65403   0.02933   0.05188   1.000
    O174    O    0.74019   0.04249   0.06638   1.000
    O175    O    0.65506   0.97773   0.00054   1.000
    O176    O    0.29058   0.44263   0.02300   1.000
    O177    O    0.05313   0.82638   0.05641   1.000
    O178    O    0.15432   0.85662   0.08586   1.000
    O179    O    0.08747   0.79035   0.00922   1.000
    O180    O    0.53121   0.47483   0.06157   1.000
    O181    O    0.61629   0.48160   0.08457   1.000
    O182    O    0.59538   0.50524   0.03005   1.000
    O183    O    0.83503   0.05317   0.07708   1.000
    O184    O    0.92820   0.06197   0.08441   1.000
    O185    O    0.84474   0.99916   0.02189   1.000
    O186    O    0.46891   0.44286   0.09559   1.000
    O187    O    0.01509   0.85482   0.09403   1.000
    O188    O    0.95225   0.80077   0.02713   1.000
    O189    O    0.32415   0.13740   0.10675   1.000
    O190    O    0.49608   0.13505   0.11185   1.000
    O191    O    0.08067   0.29209   0.09449   1.000
    O192    O    0.20647   0.31365   0.14612   1.000
    O193    O    0.82391   0.10632   0.13706   1.000
    O194    O    0.04703   0.32008   0.13307   1.000
    O195    O    0.99580   0.11151   0.13464   1.000
    O196    O    0.24990   0.88406   0.11560   1.000
    O197    O    0.34549   0.91378   0.14307   1.000
    O198    O    0.48470   0.90550   0.14490   1.000
    O199    O    0.41032   0.41194   0.12903   1.000
    O200    O    0.49931   0.41722   0.15451   1.000
    O201    O    0.32467   0.36999   0.16614   1.000
    O202    O    0.31474   0.19681   0.15266   1.000
    O203    O    0.40352   0.20392   0.16994   1.000
    O204    O    0.28451   0.27525   0.18129   1.000
    O205    O    0.44667   0.94320   0.17331   1.000
    O206    O    0.54757   0.97248   0.19890   1.000
    O207    O    0.41236   0.99047   0.20930   1.000
    O208    O    0.53982   0.38610   0.22772   1.000
    O209    O    0.81453   0.15219   0.19649   1.000
    O210    O    0.90329   0.16952   0.20352   1.000
    O211    O    0.49943   0.29319   0.23467   1.000
    O212    O    0.25178   0.34311   0.24582   1.000
    O213    O    0.78432   0.18100   0.27485   1.000
    O214    O    0.63927   0.00469   0.22566   1.000
    O215    O    0.99923   0.23438   0.29261   1.000
    O216    O    0.61372   0.04844   0.25769   1.000
    O217    O    0.38916   0.03732   0.24551   1.000
    O218    O    0.48002   0.06555   0.26885   1.000
    O219    O    0.49078   0.37918   0.29700   1.000
    O220    O    0.61955   0.38965   0.31979   1.000
    O221    O    0.58048   0.09424   0.29164   1.000
    O222    O    0.70628   0.14596   0.31317   1.000
    O223    O    0.23799   0.36399   0.33256   1.000
    O224    O    0.54687   0.13290   0.31962   1.000
    O225    O    0.45475   0.42267   0.36258   1.000
    O226    O    0.75160   0.24586   0.34269   1.000
    O227    O    0.82450   0.16615   0.36963   1.000
    O228    O    0.73790   0.33277   0.36381   1.000
    O229    O    0.99050   0.29695   0.37810   1.000
    O230    O    0.03951   0.22748   0.38544   1.000
    O231    O    0.11943   0.31949   0.38903   1.000
    O232    O    0.72961   0.39771   0.37255   1.000
    O233    O    0.22959   0.37236   0.39730   1.000
    O234    O    0.32222   0.41113   0.40674   1.000
    O235    O    0.82220   0.40696   0.41112   1.000
    O236    O    0.95450   0.36266   0.42158   1.000
    O237    O    0.91015   0.12906   0.41170   1.000
    O238    O    0.42612   0.44457   0.42169   1.000
    O239    O    0.52509   0.47710   0.43853   1.000
    O240    O    0.99900   0.15435   0.41678   1.000
    O241    O    0.96876   0.09555   0.44262   1.000
    O242    O    0.79060   0.02324   0.44269   1.000
    O243    O    0.40106   0.46748   0.48317   1.000
    O244    O    0.92605   0.42179   0.44422   1.000
    O245    O    0.90111   0.48329   0.46781   1.000
    O246    O    0.02497   0.43851   0.47642   1.000
    O247    O    0.61498   0.50978   0.45976   1.000
    O248    O    0.84133   0.99936   0.46559   1.000
    O249    O    0.93582   0.03119   0.46953   1.000
    O250    O    0.03107   0.06147   0.47461   1.000
    O251    O    0.59900   0.53256   0.51684   1.000
    O252    O    0.11607   0.08436   0.48128   1.000
    O253    O    0.90479   0.96974   0.49492   1.000
    O254    O    0.09528   0.02995   0.50509   1.000
    O255    O    0.88521   0.54039   0.49114   1.000
    O256    O    0.97509   0.56152   0.52359   1.000
    O257    O    0.11485   0.45965   0.50885   1.000
    O258    O    0.09895   0.51674   0.53221   1.000
    O259    O    0.88401   0.91567   0.51873   1.000
    O260    O    0.96901   0.93856   0.52539   1.000
    O261    O    0.06425   0.96850   0.53048   1.000
    O262    O    0.15875   0.00033   0.53441   1.000
    O263    O    0.38508   0.49026   0.54026   1.000
    O264    O    0.47497   0.52294   0.56149   1.000
    O265    O    0.03132   0.90449   0.55739   1.000
    O266    O    0.20947   0.97679   0.55732   1.000
    O267    O    0.07401   0.57824   0.55579   1.000
    O268    O    0.04556   0.63737   0.57843   1.000
    O269    O    0.17785   0.59308   0.58891   1.000
    O270    O    0.57394   0.55547   0.57832   1.000
    O271    O    0.67784   0.58891   0.59328   1.000
    O272    O    0.00108   0.84570   0.58324   1.000
    O273    O    0.08993   0.87098   0.58830   1.000
    O274    O    0.77047   0.62769   0.60272   1.000
    O275    O    0.88063   0.68055   0.61099   1.000
    O276    O    0.96056   0.77256   0.61458   1.000
    O277    O    0.54531   0.57738   0.63743   1.000
    O278    O    0.17557   0.83388   0.63038   1.000
    O279    O    0.00956   0.70309   0.62193   1.000
    O280    O    0.27045   0.60233   0.62748   1.000
    O281    O    0.26216   0.66726   0.63621   1.000
    O282    O    0.76207   0.63605   0.66746   1.000
    O283    O    0.38050   0.61039   0.68022   1.000
    O284    O    0.00083   0.76565   0.70740   1.000
    O285    O    0.24846   0.75418   0.65733   1.000
    O286    O    0.45320   0.86713   0.68036   1.000
    O287    O    0.29379   0.85408   0.68685   1.000
    O288    O    0.21575   0.81903   0.72518   1.000
    O289    O    0.50927   0.62086   0.70302   1.000
    O290    O    0.41959   0.90579   0.70837   1.000
    O291    O    0.52005   0.93449   0.73117   1.000
    O292    O    0.74828   0.65692   0.75419   1.000
    O293    O    0.38635   0.95160   0.74231   1.000
    O294    O    0.50062   0.70683   0.76536   1.000
    O295    O    0.46025   0.61394   0.77230   1.000
    O296    O    0.61091   0.96271   0.75451   1.000
    O297    O    0.58771   0.00957   0.79071   1.000
    O298    O    0.36081   0.99536   0.77434   1.000
    O299    O    0.45250   0.02756   0.80110   1.000
    O300    O    0.09677   0.83052   0.79648   1.000
    O301    O    0.18553   0.84786   0.80353   1.000
    O302    O    0.71555   0.72478   0.81870   1.000
    O303    O    0.67539   0.63005   0.83388   1.000
    O304    O    0.79359   0.68638   0.85389   1.000
    O305    O    0.59654   0.79612   0.83009   1.000
    O306    O    0.17615   0.89372   0.86296   1.000
    O307    O    0.50075   0.58279   0.84550   1.000
    O308    O    0.55340   0.05684   0.82670   1.000
    O309    O    0.65459   0.08626   0.85694   1.000
    O310    O    0.51537   0.09455   0.85510   1.000
    O311    O    0.95303   0.67995   0.86694   1.000
    O312    O    0.00426   0.88852   0.86538   1.000
    O313    O    0.68531   0.80323   0.84732   1.000
    O314    O    0.67590   0.86264   0.89326   1.000
    O315    O    0.50398   0.86499   0.88818   1.000
    O316    O    0.58974   0.58807   0.87097   1.000
    O317    O    0.53115   0.55715   0.90441   1.000
    O318    O    0.98499   0.14521   0.90599   1.000
    O319    O    0.75017   0.11597   0.88441   1.000
    O320    O    0.84575   0.14341   0.91416   1.000
    O321    O    0.38377   0.51842   0.91545   1.000
    O322    O    0.07186   0.93806   0.91561   1.000
    O323    O    0.91940   0.70795   0.90553   1.000
    O324    O    0.01985   0.73077   0.93422   1.000
    O325    O    0.16503   0.94686   0.92295   1.000
    O326    O    0.25986   0.95755   0.93365   1.000
    O327    O    0.88614   0.74192   0.95125   1.000
    O328    O    0.57160   0.91522   0.93771   1.000
    O329    O    0.66477   0.92259   0.94648   1.000
    O330    O    0.75961   0.93333   0.95713   1.000
    O331    O    0.34603   0.97070   0.94815   1.000
    O332    O    0.94694   0.17365   0.94361   1.000
    O333    O    0.46887   0.52520   0.93845   1.000
    O334    O    0.56421   0.53044   0.96850   1.000
    O335    O    0.11070   0.75413   0.96244   1.000
    O336    O    0.84578   0.94787   0.97025   1.000
    O337    O    0.86057   0.77398   0.99493   1.000
    O338    O    0.36464   0.36835   0.26089   1.000
    O339    O    0.13571   0.73912   0.63267   1.000
    O340    O    0.63542   0.63168   0.73912   1.000
    O341    O    0.86435   0.26091   0.36736   1.000
loop_
    _geom_bond_atom_site_label_1
    _geom_bond_atom_site_label_2
    _geom_bond_distance
    _geom_bond_site_symmetry_2
    _ccdc_geom_bond_type
    C47    O156      0.71327      .   S
    C45    O156      0.71327      .   S
    C47    O157      0.69294  1_554   S
    C80    O157      0.69294      .   S
    C47    O158      0.68116  1_554   S
    C122   O158      0.68116      .   S
    C140   O159      0.49899  1_554   S
    C33    O159      0.49899      .   S
    C140   O160      0.67911      .   S
    C81    O160      0.67911  1_556   S
    C14    O161      0.54424      .   S
    C60    O161      0.54424      .   S
    C60    O162      0.67502      .   S
    C112   O162      0.67502      .   S
    C60    O163      0.69439  1_554   S
    C59    O163      0.69439  1_655   S
    C50    O164      0.54460      .   S
    C9     O164      0.54460      .   S
    C50    O165      0.70104      .   S
    C49    O165      0.70104      .   S
    C50    O166      0.69752  1_554   S
    C68    O166      0.69752  1_565   S
    C57    O167      0.54405      .   S
    C12    O167      0.54405      .   S
    C57    O168      0.69318      .   S
    C56    O168      0.69318  1_455   S
    C57    O169      0.70156  1_554   S
    C58    O169      0.70156      .   S
    C51    O170      0.71082      .   S
    C49    O170      0.71082      .   S
    C51    O171      0.67829      .   S
    C125   O171      0.67829      .   S
    C51    O172      0.69750  1_554   S
    C67    O172      0.69750  1_565   S
    C101   O173      0.54461      .   S
    C36    O173      0.54461      .   S
    C101   O174      0.70103      .   S
    C100   O174      0.70103      .   S
    C101   O175      0.69755  1_545   S
    C85    O175      0.69755  1_556   S
    C15    O176      0.49840      .   S
    C122   O176      0.49840  1_556   S
    C92    O177      0.69998      .   S
    C93    O177      0.69998      .   S
    C92    O178      0.71057      .   S
    C117   O178      0.71057      .   S
    C92    O179      0.70161      .   S
    C91    O179      0.70161  1_556   S
    C46    O180      0.70152      .   S
    C45    O180      0.70152      .   S
    C46    O181      0.54405      .   S
    C8     O181      0.54405      .   S
    C46    O182      0.69761      .   S
    C81    O182      0.69761  1_556   S
    C102   O183      0.71080      .   S
    C100   O183      0.71080      .   S
    C102   O184      0.67831      .   S
    C152   O184      0.67831      .   S
    C102   O185      0.69750  1_545   S
    C84    O185      0.69750  1_556   S
    C45    O186      0.74285      .   S
    C44    O186      0.74285      .   S
    C93    O187      0.54447      .   S
    C31    O187      0.54447      .   S
    C93    O188      0.69439  1_455   S
    C94    O188      0.69439  1_556   S
    C49    O189      0.74189      .   S
    C48    O189      0.74189      .   S
    C125   O190      0.49946      .   S
    C16    O190      0.49946      .   S
    C112   O191      0.67722      .   S
    C56    O191      0.67722      .   S
    C112   O192      1.06646      .   S
    C0     O192      1.06646      .   S
    C100   O193      0.74194      .   S
    C99    O193      0.74194      .   S
    C56    O194      0.54395      .   S
    C11    O194      0.54395      .   S
    C152   O195      0.49955      .   S
    C43    O195      0.49955  1_455   S
    C119   O196      0.63783      .   S
    C117   O196      0.63783      .   S
    C119   O197      0.71056      .   S
    C109   O197      0.71056      .   S
    C40    O198      0.54451      .   S
    C110   O198      0.54451      .   S
    C44    O199      0.64840      .   S
    C120   O199      0.64840      .   S
    C44    O200      0.63506      .   S
    C121   O200      0.63506      .   S
    C120   O201      1.05310      .   S
    C0     O201      1.05310      .   S
    C48    O202      0.63155      .   S
    C123   O202      0.63155      .   S
    C48    O203      0.64943      .   S
    C124   O203      0.64943      .   S
    C123   O204      1.02328      .   S
    C0     O204      1.02328      .   S
    C110   O205      0.69999      .   S
    C109   O205      0.69999      .   S
    C110   O206      0.69458      .   S
    C111   O206      0.69458  1_545   S
    C109   O207      0.70148      .   S
    C108   O207      0.70148  1_545   S
    C121   O208      0.99078      .   S
    C1     O208      0.99078      .   S
    C99    O209      0.63172      .   S
    C150   O209      0.63172      .   S
    C99    O210      0.64948      .   S
    C151   O210      0.64948      .   S
    C124   O211      1.00207      .   S
    C1     O211      1.00207      .   S
    C0     O212      1.01342      .   S
    C127   O212      1.01342      .   S
    C150   O213      1.02359      .   S
    C6     O213      1.02359      .   S
    C41    O214      0.54424      .   S
    C111   O214      0.54424      .   S
    C151   O215      1.00191      .   S
    C7     O215      1.00191  1_455   S
    C111   O216      0.67502      .   S
    C118   O216      0.67502      .   S
    C108   O217      0.54404      .   S
    C39    O217      0.54404      .   S
    C108   O218      0.69335      .   S
    C107   O218      0.69335      .   S
    C1     O219      0.98688      .   S
    C126   O219      0.98688      .   S
    C1     O220      0.96523      .   S
    C155   O220      0.96523      .   S
    C118   O221      0.67722      .   S
    C107   O221      0.67722      .   S
    C118   O222      1.06690      .   S
    C6     O222      1.06690      .   S
    C127   O223      0.63812      .   S
    C52    O223      0.63812      .   S
    C107   O224      0.54395      .   S
    C38    O224      0.54395      .   S
    C126   O225      0.67740      .   S
    C54    O225      0.67740      .   S
    C6     O226      1.01342      .   S
    C154   O226      1.01342      .   S
    C6     O227      1.05233      .   S
    C147   O227      1.05233      .   S
    C154   O228      0.63816      .   S
    C103   O228      0.63816      .   S
    C7     O229      0.98645  1_455   S
    C153   O229      0.98645      .   S
    C7     O230      0.99088      .   S
    C148   O230      0.99088      .   S
    C7     O231      0.96513      .   S
    C128   O231      0.96513      .   S
    C155   O232      0.64267      .   S
    C103   O232      0.64267      .   S
    C52    O233      0.64266      .   S
    C128   O233      0.64266      .   S
    C52    O234      0.74170      .   S
    C53    O234      0.74170      .   S
    C103   O235      0.74163      .   S
    C104   O235      0.74163      .   S
    C153   O236      0.67735      .   S
    C105   O236      0.67735      .   S
    C147   O237      0.64842      .   S
    C95    O237      0.64842      .   S
    C54    O238      0.71018      .   S
    C53    O238      0.71018      .   S
    C54    O239      0.69859      .   S
    C89    O239      0.69859      .   S
    C148   O240      0.63486  1_455   S
    C95    O240      0.63486      .   S
    C95    O241      0.74284      .   S
    C96    O241      0.74284      .   S
    C42    O242      0.49893      .   S
    C149   O242      0.49893  1_565   S
    C53    O243      0.70179      .   S
    C55    O243      0.70179      .   S
    C104   O244      0.71014      .   S
    C105   O244      0.71014      .   S
    C104   O245      0.70176      .   S
    C106   O245      0.70176      .   S
    C105   O246      0.69839  1_655   S
    C72    O246      0.69839      .   S
    C28    O247      0.54333      .   S
    C89    O247      0.54333      .   S
    C149   O248      0.68160      .   S
    C98    O248      0.68160  1_545   S
    C96    O249      0.71381      .   S
    C98    O249      0.71381      .   S
    C96    O250      0.70126  1_655   S
    C97    O250      0.70126      .   S
    C89    O251      0.70179      .   S
    C87    O251      0.70179      .   S
    C35    O252      0.54404      .   S
    C97    O252      0.54404      .   S
    C98    O253      0.69193  1_545   S
    C63    O253      0.69193      .   S
    C97    O254      0.69725      .   S
    C64    O254      0.69725  1_565   S
    C37    O255      0.54330      .   S
    C106   O255      0.54330      .   S
    C106   O256      0.69836      .   S
    C71    O256      0.69836  1_455   S
    C72    O257      0.54337      .   S
    C19    O257      0.54337      .   S
    C72    O258      0.70175      .   S
    C70    O258      0.70175      .   S
    C63    O259      0.54404      .   S
    C17    O259      0.54404      .   S
    C63    O260      0.70126      .   S
    C62    O260      0.70126  1_455   S
    C64    O261      0.71103      .   S
    C62    O261      0.71103      .   S
    C64    O262      0.67927  1_565   S
    C131   O262      0.67927      .   S
    C55    O263      0.54333      .   S
    C10    O263      0.54333      .   S
    C55    O264      0.69859      .   S
    C88    O264      0.69859      .   S
    C62    O265      0.74281      .   S
    C61    O265      0.74281      .   S
    C131   O266      0.49897  1_545   S
    C24    O266      0.49897      .   S
    C71    O267      0.71011      .   S
    C70    O267      0.71011      .   S
    C71    O268      0.67744      .   S
    C135   O268      0.67744      .   S
    C70    O269      0.74164      .   S
    C69    O269      0.74164      .   S
    C87    O270      0.71019      .   S
    C88    O270      0.71019      .   S
    C87    O271      0.74170      .   S
    C86    O271      0.74170      .   S
    C61    O272      0.63488      .   S
    C130   O272      0.63488  1_655   S
    C61    O273      0.64842      .   S
    C129   O273      0.64842      .   S
    C146   O274      0.64265      .   S
    C86    O274      0.64265      .   S
    C146   O275      0.96513      .   S
    C3     O275      0.96513      .   S
    C130   O276      0.99087      .   S
    C3     O276      0.99087      .   S
    C88    O277      0.67741      .   S
    C144   O277      0.67741      .   S
    C129   O278      1.05236      .   S
    C2     O278      1.05236      .   S
    C135   O279      0.98643      .   S
    C3     O279      0.98643  1_655   S
    C69    O280      0.64267      .   S
    C137   O280      0.64267      .   S
    C69    O281      0.63816      .   S
    C136   O281      0.63816      .   S
    C86    O282      0.63812      .   S
    C145   O282      0.63812      .   S
    C137   O283      0.96522      .   S
    C5     O283      0.96522      .   S
    C3     O284      1.00176  1_655   S
    C133   O284      1.00176      .   S
    C136   O285      1.01341      .   S
    C2     O285      1.01341      .   S
    C20    O286      0.54421      .   S
    C73    O286      0.54421      .   S
    C2     O287      1.06689      .   S
    C114   O287      1.06689      .   S
    C2     O288      1.02361      .   S
    C132   O288      1.02361      .   S
    C144   O289      0.98685      .   S
    C5     O289      0.98685      .   S
    C73    O290      0.67720      .   S
    C114   O290      0.67720      .   S
    C73    O291      0.69334      .   S
    C74    O291      0.69334      .   S
    C145   O292      1.01346      .   S
    C4     O292      1.01346      .   S
    C114   O293      0.67501      .   S
    C77    O293      0.67501      .   S
    C5     O294      1.00205      .   S
    C142   O294      1.00205      .   S
    C5     O295      0.99081      .   S
    C139   O295      0.99081      .   S
    C21    O296      0.54404      .   S
    C74    O296      0.54404      .   S
    C74    O297      0.70147  1_565   S
    C75    O297      0.70147      .   S
    C77    O298      0.54426      .   S
    C23    O298      0.54426      .   S
    C77    O299      0.69459  1_565   S
    C76    O299      0.69459      .   S
    C133   O300      0.64948      .   S
    C65    O300      0.64948      .   S
    C132   O301      0.63173      .   S
    C65    O301      0.63173      .   S
    C4     O302      1.02320      .   S
    C141   O302      1.02320      .   S
    C4     O303      1.05307      .   S
    C138   O303      1.05307      .   S
    C4     O304      1.06650      .   S
    C116   O304      1.06650      .   S
    C142   O305      0.64943      .   S
    C82    O305      0.64943      .   S
    C65    O306      0.74195      .   S
    C66    O306      0.74195      .   S
    C139   O307      0.63508      .   S
    C78    O307      0.63508      .   S
    C75    O308      0.70000      .   S
    C76    O308      0.70000      .   S
    C75    O309      0.71055      .   S
    C115   O309      0.71055      .   S
    C76    O310      0.54450      .   S
    C22    O310      0.54450      .   S
    C29    O311      0.54395      .   S
    C90    O311      0.54395      .   S
    C25    O312      0.49957  1_655   S
    C134   O312      0.49957      .   S
    C141   O313      0.63176      .   S
    C82    O313      0.63176      .   S
    C82    O314      0.74190      .   S
    C83    O314      0.74190      .   S
    C34    O315      0.49945      .   S
    C143   O315      0.49945      .   S
    C138   O316      0.64843      .   S
    C78    O316      0.64843      .   S
    C78    O317      0.74287      .   S
    C79    O317      0.74287      .   S
    C13    O318      0.54453      .   S
    C59    O318      0.54453      .   S
    C113   O319      0.63788      .   S
    C115   O319      0.63788      .   S
    C113   O320      0.71056      .   S
    C58    O320      0.71056      .   S
    C26    O321      0.54402      .   S
    C80    O321      0.54402      .   S
    C134   O322      0.67830      .   S
    C68    O322      0.67830      .   S
    C90    O323      0.67719      .   S
    C116   O323      0.67719      .   S
    C90    O324      0.69318  1_655   S
    C91    O324      0.69318      .   S
    C66    O325      0.71079      .   S
    C68    O325      0.71079      .   S
    C66    O326      0.70103      .   S
    C67    O326      0.70103      .   S
    C116   O327      0.67509      .   S
    C94    O327      0.67509      .   S
    C143   O328      0.67829      .   S
    C85    O328      0.67829      .   S
    C83    O329      0.71078      .   S
    C85    O329      0.71078      .   S
    C83    O330      0.70103      .   S
    C84    O330      0.70103      .   S
    C18    O331      0.54465      .   S
    C67    O331      0.54465      .   S
    C59    O332      0.69999      .   S
    C58    O332      0.69999      .   S
    C79    O333      0.70146      .   S
    C80    O333      0.70146      .   S
    C79    O334      0.71075      .   S
    C81    O334      0.71075      .   S
    C30    O335      0.54403      .   S
    C91    O335      0.54403      .   S
    C27    O336      0.54460      .   S
    C84    O336      0.54460      .   S
    C94    O337      0.54420      .   S
    C32    O337      0.54420      .   S
    C126   O338      1.02563      .   S
    C0     O338      1.02563      .   S
    C135   O339      1.02598      .   S
    C2     O339      1.02598      .   S
    C144   O340      1.02564      .   S
    C4     O340      1.02564      .   S
    C153   O341      1.02594      .   S
    C6     O341      1.02594      .   S
