# CIF file generated by openbabel 2.4.90, see http://openbabel.sf.net
data_I
_chemical_name_common ''
_cell_length_a 14.809
_cell_length_b 21.175
_cell_length_c 21.172
_cell_angle_alpha 83.049
_cell_angle_beta 69.624
_cell_angle_gamma 69.642
_space_group_name_H-M_alt 'P 1'
_space_group_name_Hall 'P 1'
loop_
    _symmetry_equiv_pos_as_xyz
    x,y,z
loop_
    _atom_site_label
    _atom_site_type_symbol
    _atom_site_fract_x
    _atom_site_fract_y
    _atom_site_fract_z
    _atom_site_occupancy
    Lv0     Lv   0.45840   0.24752   0.99314   1.000
    Lv1     Lv   0.76734   0.44996   0.34651   1.000
    Lv2     Lv   0.93541   0.95002   0.84679   1.000
    Lv3     Lv   0.88564   0.34674   0.04965   1.000
    Lv4     Lv   0.78257   0.15340   0.44993   1.000
    Lv5     Lv   0.21736   0.84657   0.55005   1.000
    Lv6     Lv   0.23263   0.55005   0.65348   1.000
    Lv7     Lv   0.06457   0.04982   0.15314   1.000
    Lv8     Lv   0.11408   0.65327   0.95015   1.000
    Lv9     Lv   0.20037   0.25244   0.50657   1.000
    Lv10    Lv   0.29385   0.50639   0.24770   1.000
    Lv11    Lv   0.54845   0.99304   0.25248   1.000
    Lv12    Lv   0.70613   0.49361   0.75230   1.000
    Lv13    Lv   0.45154   0.00696   0.74751   1.000
    Lv14    Lv   0.79963   0.74756   0.49343   1.000
    Lv15    Lv   0.54159   0.75248   0.00681   1.000
