# CIF file generated by openbabel 2.4.90, see http://openbabel.sf.net
data_I
_chemical_name_common ''
_cell_length_a 14.809
_cell_length_b 21.175
_cell_length_c 21.172
_cell_angle_alpha 83.049
_cell_angle_beta 69.624
_cell_angle_gamma 69.642
_space_group_name_H-M_alt 'P 1'
_space_group_name_Hall 'P 1'
loop_
    _symmetry_equiv_pos_as_xyz
    x,y,z
loop_
    _atom_site_label
    _atom_site_type_symbol
    _atom_site_fract_x
    _atom_site_fract_y
    _atom_site_fract_z
    _atom_site_occupancy
    Mo0     Mo   0.96098   0.55239   0.49527   1.000
    Mo1     Mo   0.51296   0.99533   0.44761   1.000
    Mo2     Mo   0.45635   0.50457   0.05241   1.000
    Mo3     Mo   0.49158   0.05239   0.99540   1.000
    Mo4     Mo   0.03900   0.44761   0.50473   1.000
    Mo5     Mo   0.48703   0.00467   0.55239   1.000
    Mo6     Mo   0.54362   0.49544   0.94760   1.000
    H7      H    0.54951   0.89014   0.20657   1.000
    H8      H    0.53670   0.09794   0.18433   1.000
    H9      H    0.55919   0.89248   0.32242   1.000
    H10     H    0.54890   0.09147   0.30080   1.000
    Mo11    Mo   0.50841   0.94761   0.00453   1.000
    H12     H    0.14697   0.60942   0.29342   1.000
    H13     H    0.31812   0.40156   0.31599   1.000
    H14     H    0.27466   0.60689   0.17768   1.000
    H15     H    0.44016   0.40781   0.19960   1.000
    H16     H    0.75518   0.79329   0.39040   1.000
    H17     H    0.71987   0.81585   0.59828   1.000
    H18     H    0.88014   0.67751   0.39292   1.000
    H19     H    0.84795   0.69943   0.59196   1.000
    H20     H    0.44014   0.70662   0.10976   1.000
    H21     H    0.63428   0.68429   0.90197   1.000
    H22     H    0.45220   0.82245   0.10742   1.000
    H23     H    0.64011   0.80073   0.90845   1.000
    H24     H    0.45049   0.10986   0.79344   1.000
    H25     H    0.46329   0.90205   0.81568   1.000
    H26     H    0.44080   0.10752   0.67750   1.000
    H27     H    0.45109   0.90853   0.69921   1.000
    H28     H    0.85300   0.39058   0.70659   1.000
    H29     H    0.68186   0.59844   0.68401   1.000
    H30     H    0.72532   0.39312   0.82233   1.000
    H31     H    0.55982   0.59219   0.80040   1.000
    H32     H    0.24483   0.20671   0.60957   1.000
    H33     H    0.28012   0.18414   0.40173   1.000
    H34     H    0.11986   0.32249   0.60708   1.000
    H35     H    0.15205   0.30056   0.40804   1.000
    C36     C    0.40659   0.28636   0.05175   1.000
    C37     C    0.50793   0.21002   0.93700   1.000
    C38     C    0.40354   0.22207   0.04813   1.000
    N39     N    0.55421   0.99198   0.31635   1.000
    N40     N    0.36234   0.50733   0.18380   1.000
    N41     N    0.86895   0.68372   0.49246   1.000
    N42     N    0.54635   0.81633   0.00791   1.000
    N43     N    0.44578   0.00801   0.68366   1.000
    H44     H    0.55986   0.29338   0.89025   1.000
    H45     H    0.36571   0.31571   0.09800   1.000
    H46     H    0.54781   0.17755   0.89259   1.000
    H47     H    0.35988   0.19927   0.09157   1.000
    C48     C    0.70411   0.96998   0.93056   1.000
    C49     C    0.53106   0.99586   0.11988   1.000
    C50     C    0.54157   0.99429   0.18672   1.000
    C51     C    0.54918   0.93551   0.22607   1.000
    C52     C    0.54192   0.05165   0.21367   1.000
    C53     C    0.55484   0.93688   0.28997   1.000
    C54     C    0.54852   0.04804   0.27790   1.000
    C55     C    0.10490   0.53018   0.56949   1.000
    C56     C    0.14674   0.50381   0.38019   1.000
    C57     C    0.22252   0.50524   0.31343   1.000
    C58     C    0.21113   0.56399   0.27400   1.000
    C59     C    0.30670   0.44782   0.28660   1.000
    C60     C    0.28196   0.56250   0.21017   1.000
    C61     C    0.37392   0.45132   0.22230   1.000
    C62     C    0.63500   0.06946   0.46980   1.000
    C63     C    0.65025   0.88011   0.49608   1.000
    C64     C    0.72728   0.81330   0.49460   1.000
    C65     C    0.77417   0.77388   0.43585   1.000
    C66     C    0.75436   0.78645   0.55201   1.000
    C67     C    0.84341   0.71001   0.43731   1.000
    C68     C    0.82495   0.72217   0.54847   1.000
    C69     C    0.67432   0.43056   0.02982   1.000
    C70     C    0.52689   0.61993   0.00400   1.000
    C71     C    0.53592   0.68674   0.00500   1.000
    C72     C    0.48501   0.72610   0.06439   1.000
    C73     C    0.59340   0.71365   0.94827   1.000
    C74     C    0.49207   0.78998   0.06302   1.000
    C75     C    0.59645   0.77793   0.95188   1.000
    C76     C    0.29587   0.03002   0.06945   1.000
    C77     C    0.46893   0.00414   0.88013   1.000
    C78     C    0.45842   0.00570   0.81329   1.000
    C79     C    0.45081   0.06448   0.77394   1.000
    C80     C    0.45807   0.94835   0.78634   1.000
    C81     C    0.44516   0.06311   0.71004   1.000
    C82     C    0.45147   0.95196   0.72203   1.000
    C83     C    0.89509   0.46982   0.43051   1.000
    C84     C    0.85324   0.49619   0.61982   1.000
    C85     C    0.77746   0.49476   0.68658   1.000
    C86     C    0.78885   0.43602   0.72600   1.000
    C87     C    0.69329   0.55218   0.71341   1.000
    C88     C    0.71801   0.43750   0.78984   1.000
    C89     C    0.62606   0.54868   0.77768   1.000
    C90     C    0.36499   0.93054   0.53015   1.000
    C91     C    0.34975   0.11989   0.50392   1.000
    C92     C    0.27272   0.18670   0.50540   1.000
    C93     C    0.22584   0.22613   0.56415   1.000
    C94     C    0.24564   0.21354   0.44800   1.000
    C95     C    0.15659   0.28999   0.56269   1.000
    C96     C    0.17504   0.27783   0.45153   1.000
    C97     C    0.32565   0.56945   0.97019   1.000
    C98     C    0.47310   0.38008   0.99596   1.000
    C99     C    0.46408   0.31326   0.99442   1.000
    C100    C    0.51498   0.27390   0.93563   1.000
    N101    N    0.63763   0.49268   0.81612   1.000
    N102    N    0.13105   0.31628   0.50750   1.000
    N103    N    0.45365   0.18367   0.99210   1.000
    O104    O    0.66684   0.92178   0.95065   1.000
    O105    O    0.53435   0.94138   0.09630   1.000
    O106    O    0.64746   0.03221   0.94169   1.000
    O107    O    0.51697   0.05183   0.08682   1.000
    O108    O    0.03984   0.57837   0.54923   1.000
    O109    O    0.07232   0.55836   0.40353   1.000
    O110    O    0.12112   0.46795   0.55849   1.000
    O111    O    0.15519   0.44795   0.41340   1.000
    O112    O    0.61782   0.04925   0.42160   1.000
    O113    O    0.63011   0.90356   0.44157   1.000
    O114    O    0.58939   0.05839   0.53211   1.000
    O115    O    0.60326   0.91329   0.55199   1.000
    O116    O    0.58913   0.45069   0.07808   1.000
    O117    O    0.47596   0.59640   0.05859   1.000
    O118    O    0.67949   0.44175   0.96764   1.000
    O119    O    0.56840   0.58685   0.94810   1.000
    O120    O    0.33315   0.07822   0.04935   1.000
    O121    O    0.46564   0.05862   0.90371   1.000
    O122    O    0.35252   0.96779   0.05832   1.000
    O123    O    0.48302   0.94817   0.91319   1.000
    O124    O    0.96014   0.42163   0.45078   1.000
    O125    O    0.92766   0.44164   0.59648   1.000
    O126    O    0.87886   0.53205   0.44152   1.000
    O127    O    0.84479   0.55205   0.58661   1.000
    O128    O    0.38217   0.95076   0.57833   1.000
    O129    O    0.36989   0.09644   0.55844   1.000
    O130    O    0.41061   0.94161   0.46790   1.000
    O131    O    0.39674   0.08671   0.44800   1.000
    O132    O    0.41084   0.54931   0.92193   1.000
    O133    O    0.52402   0.40361   0.94142   1.000
    O134    O    0.32049   0.55827   0.03237   1.000
    O135    O    0.43158   0.41316   0.05180   1.000
loop_
    _geom_bond_atom_site_label_1
    _geom_bond_atom_site_label_2
    _geom_bond_distance
    _geom_bond_site_symmetry_2
    _ccdc_geom_bond_type
    C70    C71       1.46995      .   S
    C70    O117      1.29148      .   S
    C70    O119      1.28984  1_554   S
    Mo11   N42       2.63465      .   S
    Mo11   O122      2.09984      .   S
    Mo11   O105      2.08872      .   S
    Mo11   O123      2.09256  1_554   S
    Mo11   O104      2.12123  1_554   S
    C71    C72       1.41438      .   S
    C71    C73       1.39704  1_554   S
    N42    C74       1.34911      .   S
    N42    C75       1.34889  1_554   S
    C69    O116      1.28490      .   S
    C69    O118      1.28923  1_554   S
    O134   Mo2       2.09930      .   S
    O134   C97       1.28922  1_554   S
    C38    C36       1.38976      .   S
    C38    H47       1.09206      .   S
    C38    N103      1.34891  1_554   S
    O120   C76       1.28481      .   S
    O120   Mo3       2.12151  1_554   S
    C36    H45       1.08831      .   S
    C36    C99       1.40469  1_554   S
    O135   Mo2       2.09398      .   S
    O135   C98       1.28883  1_554   S
    Mo2    O117      2.08884      .   S
    Mo2    O116      2.12054      .   S
    Mo2    N40       2.63929      .   S
    O122   C76       1.28996  1_565   S
    C74    C72       1.38853      .   S
    C74    H22       1.09203      .   S
    C72    H20       1.08850      .   S
    O107   C49       1.29108  1_545   S
    O107   Mo3       2.09424  1_554   S
    O105   C49       1.29063      .   S
    C49    C50       1.47187      .   S
    H14    C60       1.09215      .   S
    N40    C60       1.34943      .   S
    N40    C61       1.34987      .   S
    H8     C52       1.08907      .   S
    C50    C52       1.40528  1_565   S
    C50    C51       1.40457      .   S
    H15    C61       1.09188      .   S
    H7     C51       1.08855      .   S
    C60    C58       1.38844      .   S
    C52    C54       1.38813      .   S
    C61    C59       1.39031      .   S
    C51    C53       1.38863      .   S
    C58    H12       1.08864      .   S
    C58    C57       1.40477      .   S
    C54    H10       1.09284      .   S
    C54    N39       1.35018  1_545   S
    C59    C57       1.40513      .   S
    C59    H13       1.08903      .   S
    C53    N39       1.34903      .   S
    C53    H9        1.09211      .   S
    C57    C56       1.47200      .   S
    N39    Mo1       2.63375      .   S
    C56    O109      1.29081      .   S
    C56    O111      1.29072      .   S
    H16    C65       1.08919      .   S
    H18    C67       1.09214      .   S
    H33    C94       1.08911      .   S
    O109   Mo0       2.08871  1_455   S
    H35    C96       1.09204      .   S
    O111   Mo4       2.09479      .   S
    O112   Mo1       2.12221  1_545   S
    O112   C62       1.28518      .   S
    C83    O126      1.28975      .   S
    C83    O124      1.28508      .   S
    C65    C67       1.38869      .   S
    C65    C64       1.40459      .   S
    C67    N41       1.34903      .   S
    O126   Mo0       2.09901      .   S
    O113   Mo1       2.08863      .   S
    O113   C63       1.29048      .   S
    Mo1    O131      2.09365  1_565   S
    Mo1    O130      2.09861      .   S
    C94    C96       1.38980      .   S
    C94    C92       1.40514      .   S
    O131   C91       1.29111      .   S
    O124   Mo4       2.12113  1_655   S
    C96    N102      1.34845      .   S
    O130   C90       1.28982      .   S
    C62    O114      1.29086      .   S
    N41    Mo0       2.64096      .   S
    N41    C68       1.34908      .   S
    C64    C63       1.47196      .   S
    C64    C66       1.40532      .   S
    Mo0    O108      2.12124  1_655   S
    Mo0    O127      2.09490      .   S
    C63    O115      1.29093      .   S
    C91    C92       1.47195      .   S
    C91    O129      1.29068      .   S
    Mo4    N102      2.64089      .   S
    Mo4    O110      2.09917      .   S
    Mo4    O125      2.08884  1_455   S
    C92    C93       1.40463      .   S
    N102   C95       1.34981      .   S
    C90    O128      1.28479      .   S
    O114   Mo5       2.09863      .   S
    C68    C66       1.38978      .   S
    C68    H19       1.09204      .   S
    O108   C55       1.28503      .   S
    O115   Mo5       2.09360  1_565   S
    C66    H17       1.08908      .   S
    Mo5    O129      2.08861      .   S
    Mo5    O128      2.12231  1_545   S
    Mo5    N43       2.63394      .   S
    O110   C55       1.28973      .   S
    C95    C93       1.38868      .   S
    C95    H34       1.09217      .   S
    C93    H32       1.08860      .   S
    O127   C84       1.29070      .   S
    O125   C84       1.29081      .   S
    C84    C85       1.47201      .   S
    H26    C81       1.09313      .   S
    N43    C81       1.34905      .   S
    N43    C82       1.34929  1_545   S
    H29    C87       1.08913      .   S
    C85    C87       1.40515      .   S
    C85    C86       1.40463      .   S
    H27    C82       1.09194      .   S
    H28    C86       1.08860      .   S
    C81    C79       1.38862      .   S
    C87    C89       1.38986      .   S
    C82    C80       1.38982      .   S
    C86    C88       1.38859      .   S
    C79    H24       1.08859      .   S
    C79    C78       1.40456      .   S
    C89    H31       1.09201      .   S
    C89    N101      1.34915      .   S
    C80    C78       1.40530  1_565   S
    C80    H25       1.08907      .   S
    C88    N101      1.34905      .   S
    C88    H30       1.09212      .   S
    C78    C77       1.47186      .   S
    N101   Mo6       2.64095      .   S
    C77    O121      1.29063      .   S
    C77    O123      1.29106  1_545   S
    H44    C100      1.08864      .   S
    H46    C37       1.09220      .   S
    H21    C73       1.08912      .   S
    O121   Mo3       2.08703      .   S
    H23    C75       1.09193      .   S
    O132   Mo6       2.12053      .   S
    O132   C97       1.28490      .   S
    C48    O106      1.28995  1_565   S
    C48    O104      1.28478      .   S
    C100   C37       1.38855      .   S
    C100   C99       1.40459      .   S
    C37    N103      1.34898      .   S
    O133   Mo6       2.08883      .   S
    O133   C98       1.29080      .   S
    O106   Mo3       2.09951      .   S
    Mo6    O119      2.09357      .   S
    Mo6    O118      2.09928      .   S
    C73    C75       1.38972      .   S
    N103   Mo3       2.63477      .   S
    C99    C98       1.47187      .   S
    Mo11   Mo3       2.13722  1_564   S
    Mo0    Mo4       2.13716  1_655   S
    Mo1    Mo5       2.13731  1_565   S
    Mo2    Mo6       2.13652  1_554   S
