# CIF file generated by openbabel 2.4.90, see http://openbabel.sf.net
data_I
_chemical_name_common ''
_cell_length_a 14.809
_cell_length_b 21.175
_cell_length_c 21.172
_cell_angle_alpha 83.049
_cell_angle_beta 69.624
_cell_angle_gamma 69.642
_space_group_name_H-M_alt 'P 1'
_space_group_name_Hall 'P 1'
loop_
    _symmetry_equiv_pos_as_xyz
    x,y,z
loop_
    _atom_site_label
    _atom_site_type_symbol
    _atom_site_fract_x
    _atom_site_fract_y
    _atom_site_fract_z
    _atom_site_occupancy
    Mo0     Mo   0.96098   0.55239   0.49527   1.000
    Mo1     Mo   0.51296   0.99533   0.44761   1.000
    Mo2     Mo   0.45635   0.50457   0.05241   1.000
    Mo3     Mo   0.49158   0.05239   0.99540   1.000
    Mo4     Mo   0.03900   0.44761   0.50473   1.000
    Mo5     Mo   0.48703   0.00467   0.55239   1.000
    Mo6     Mo   0.54362   0.49544   0.94760   1.000
    Mo7     Mo   0.50841   0.94761   0.00453   1.000
    C8      C    0.70411   0.96998   0.93056   1.000
    C9      C    0.53106   0.99586   0.11988   1.000
    C10     C    0.10490   0.53018   0.56949   1.000
    C11     C    0.14674   0.50381   0.38019   1.000
    C12     C    0.63500   0.06946   0.46980   1.000
    C13     C    0.65025   0.88011   0.49608   1.000
    C14     C    0.67432   0.43056   0.02982   1.000
    C15     C    0.52689   0.61993   0.00400   1.000
    C16     C    0.29587   0.03002   0.06945   1.000
    C17     C    0.46893   0.00414   0.88013   1.000
    C18     C    0.89509   0.46982   0.43051   1.000
    C19     C    0.85324   0.49619   0.61982   1.000
    C20     C    0.36499   0.93054   0.53015   1.000
    C21     C    0.34975   0.11989   0.50392   1.000
    C22     C    0.32565   0.56945   0.97019   1.000
    C23     C    0.47310   0.38008   0.99596   1.000
    O24     O    0.66684   0.92178   0.95065   1.000
    O25     O    0.53435   0.94138   0.09630   1.000
    O26     O    0.64746   0.03221   0.94169   1.000
    O27     O    0.51697   0.05183   0.08682   1.000
    O28     O    0.03984   0.57837   0.54923   1.000
    O29     O    0.07232   0.55836   0.40353   1.000
    O30     O    0.12112   0.46795   0.55849   1.000
    O31     O    0.15519   0.44795   0.41340   1.000
    O32     O    0.61782   0.04925   0.42160   1.000
    O33     O    0.63011   0.90356   0.44157   1.000
    O34     O    0.58939   0.05839   0.53211   1.000
    O35     O    0.60326   0.91329   0.55199   1.000
    O36     O    0.58913   0.45069   0.07808   1.000
    O37     O    0.47596   0.59640   0.05859   1.000
    O38     O    0.67949   0.44175   0.96764   1.000
    O39     O    0.56840   0.58685   0.94810   1.000
    O40     O    0.33315   0.07822   0.04935   1.000
    O41     O    0.46564   0.05862   0.90371   1.000
    O42     O    0.35252   0.96779   0.05832   1.000
    O43     O    0.48302   0.94817   0.91319   1.000
    O44     O    0.96014   0.42163   0.45078   1.000
    O45     O    0.92766   0.44164   0.59648   1.000
    O46     O    0.87886   0.53205   0.44152   1.000
    O47     O    0.84479   0.55205   0.58661   1.000
    O48     O    0.38217   0.95076   0.57833   1.000
    O49     O    0.36989   0.09644   0.55844   1.000
    O50     O    0.41061   0.94161   0.46790   1.000
    O51     O    0.39674   0.08671   0.44800   1.000
    O52     O    0.41084   0.54931   0.92193   1.000
    O53     O    0.52402   0.40361   0.94142   1.000
    O54     O    0.32049   0.55827   0.03237   1.000
    O55     O    0.43158   0.41316   0.05180   1.000
loop_
    _geom_bond_atom_site_label_1
    _geom_bond_atom_site_label_2
    _geom_bond_distance
    _geom_bond_site_symmetry_2
    _ccdc_geom_bond_type
    C15    O37       1.29148      .   S
    C15    O39       1.28984  1_554   S
    Mo7    O42       2.09984      .   S
    Mo7    O25       2.08872      .   S
    Mo7    O43       2.09256  1_554   S
    Mo7    O24       2.12123  1_554   S
    C14    O36       1.28490      .   S
    C14    O38       1.28923  1_554   S
    O54    Mo2       2.09930      .   S
    O54    C22       1.28922  1_554   S
    O40    C16       1.28481      .   S
    O40    Mo3       2.12151  1_554   S
    O55    Mo2       2.09398      .   S
    O55    C23       1.28883  1_554   S
    Mo2    O37       2.08884      .   S
    Mo2    O36       2.12054      .   S
    O42    C16       1.28996  1_565   S
    O27    C9        1.29108  1_545   S
    O27    Mo3       2.09424  1_554   S
    O25    C9        1.29063      .   S
    C11    O29       1.29081      .   S
    C11    O31       1.29072      .   S
    O29    Mo0       2.08871  1_455   S
    O31    Mo4       2.09479      .   S
    O32    Mo1       2.12221  1_545   S
    O32    C12       1.28518      .   S
    C18    O46       1.28975      .   S
    C18    O44       1.28508      .   S
    O46    Mo0       2.09901      .   S
    O33    Mo1       2.08863      .   S
    O33    C13       1.29048      .   S
    Mo1    O51       2.09365  1_565   S
    Mo1    O50       2.09861      .   S
    O51    C21       1.29111      .   S
    O44    Mo4       2.12113  1_655   S
    O50    C20       1.28982      .   S
    C12    O34       1.29086      .   S
    Mo0    O28       2.12124  1_655   S
    Mo0    O47       2.09490      .   S
    C13    O35       1.29093      .   S
    C21    O49       1.29068      .   S
    Mo4    O30       2.09917      .   S
    Mo4    O45       2.08884  1_455   S
    C20    O48       1.28479      .   S
    O34    Mo5       2.09863      .   S
    O28    C10       1.28503      .   S
    O35    Mo5       2.09360  1_565   S
    Mo5    O49       2.08861      .   S
    Mo5    O48       2.12231  1_545   S
    O30    C10       1.28973      .   S
    O47    C19       1.29070      .   S
    O45    C19       1.29081      .   S
    C17    O41       1.29063      .   S
    C17    O43       1.29106  1_545   S
    O41    Mo3       2.08703      .   S
    O52    Mo6       2.12053      .   S
    O52    C22       1.28490      .   S
    C8     O26       1.28995  1_565   S
    C8     O24       1.28478      .   S
    O53    Mo6       2.08883      .   S
    O53    C23       1.29080      .   S
    O26    Mo3       2.09951      .   S
    Mo6    O39       2.09357      .   S
    Mo6    O38       2.09928      .   S
    Mo7    Mo3       2.13722  1_564   S
    Mo0    Mo4       2.13716  1_655   S
    Mo1    Mo5       2.13731  1_565   S
    Mo2    Mo6       2.13652  1_554   S
