# CIF file generated by openbabel 2.4.90, see http://openbabel.sf.net
data_I
_chemical_name_common ''
_cell_length_a 14.809
_cell_length_b 21.175
_cell_length_c 21.172
_cell_angle_alpha 83.049
_cell_angle_beta 69.624
_cell_angle_gamma 69.642
_space_group_name_H-M_alt 'P 1'
_space_group_name_Hall 'P 1'
loop_
    _symmetry_equiv_pos_as_xyz
    x,y,z
loop_
    _atom_site_label
    _atom_site_type_symbol
    _atom_site_fract_x
    _atom_site_fract_y
    _atom_site_fract_z
    _atom_site_occupancy
    N0      N    0.45840   0.24752   0.99314   1.000
    N1      N    0.20037   0.25244   0.50657   1.000
    N2      N    0.29385   0.50639   0.24770   1.000
    N3      N    0.54845   0.99304   0.25248   1.000
    N4      N    0.70613   0.49361   0.75230   1.000
    N5      N    0.45154   0.00696   0.74751   1.000
    N6      N    0.79963   0.74756   0.49343   1.000
    N7      N    0.54159   0.75248   0.00681   1.000
    Zr8     Zr   0.50000   0.00000   0.49999   1.000
    O9      O    0.47949   0.00332   0.59138   1.000
    O10     O    0.62210   0.89857   0.49719   1.000
    O11     O    0.52051   0.99667   0.40861   1.000
    O12     O    0.37790   0.10143   0.50280   1.000
    Zr13    Zr   0.49999   0.50001   0.99999   1.000
    O14     O    0.51824   0.60146   0.00282   1.000
    O15     O    0.48174   0.39855   0.99708   1.000
    O16     O    0.42579   0.50309   0.09145   1.000
    O17     O    0.57418   0.49692   0.90854   1.000
    Zr18    Zr   0.49999   0.00000   1.00000   1.000
    O19     O    0.47880   0.00297   0.89856   1.000
    O20     O    0.52119   0.99703   0.10144   1.000
    O21     O    0.48275   0.09139   0.99672   1.000
    O22     O    0.51724   0.90861   0.00326   1.000
    Zr23    Zr   0.99999   0.50000   0.50000   1.000
    O24     O    0.07135   0.40860   0.50317   1.000
    O25     O    0.11962   0.50273   0.39863   1.000
    O26     O    0.88037   0.49727   0.60138   1.000
    O27     O    0.92864   0.59140   0.49682   1.000
loop_
    _geom_bond_atom_site_label_1
    _geom_bond_atom_site_label_2
    _geom_bond_distance
    _geom_bond_site_symmetry_2
    _ccdc_geom_bond_type
    Zr8    O9        1.85736      .   S
    N5     O9        3.19236      .   S
    Zr8    O10       2.26719  1_545   S
    N6     O10       3.34803      .   S
    Zr8    O11       1.85721  1_545   S
    N3     O11       3.19234      .   S
    Zr8    O12       2.26716      .   S
    N1     O12       3.34800      .   S
    Zr13   O14       2.26674  1_556   S
    N7     O14       3.34795      .   S
    Zr13   O15       2.26708      .   S
    N0     O15       3.34780      .   S
    Zr13   O16       1.86007  1_556   S
    N2     O16       3.19788      .   S
    Zr13   O17       1.86013      .   S
    N4     O17       3.19767      .   S
    Zr18   O19       2.26678      .   S
    N5     O19       3.34760      .   S
    Zr18   O20       2.26684  1_546   S
    N3     O20       3.34748      .   S
    Zr18   O21       1.85764      .   S
    N0     O21       3.19294      .   S
    Zr18   O22       1.85763  1_546   S
    N7     O22       3.19291      .   S
    Zr23   O24       1.86069  1_655   S
    N1     O24       3.19877      .   S
    Zr23   O25       2.26754  1_655   S
    N2     O25       3.34849      .   S
    Zr23   O26       2.26750      .   S
    N4     O26       3.34835      .   S
    Zr23   O27       1.86069      .   S
    N6     O27       3.19875      .   S
