# CIF file generated by openbabel 2.4.90, see http://openbabel.sf.net
data_I
_chemical_name_common ''
_cell_length_a 14.809
_cell_length_b 21.175
_cell_length_c 21.172
_cell_angle_alpha 83.049
_cell_angle_beta 69.624
_cell_angle_gamma 69.642
_space_group_name_H-M_alt 'P 1'
_space_group_name_Hall 'P 1'
loop_
    _symmetry_equiv_pos_as_xyz
    x,y,z
loop_
    _atom_site_label
    _atom_site_type_symbol
    _atom_site_fract_x
    _atom_site_fract_y
    _atom_site_fract_z
    _atom_site_occupancy
    N0      N    0.45840   0.24752   0.99314   1.000
    N1      N    0.76734   0.44996   0.34651   1.000
    N2      N    0.93541   0.95002   0.84679   1.000
    N3      N    0.88564   0.34674   0.04965   1.000
    N4      N    0.78257   0.15340   0.44993   1.000
    N5      N    0.21736   0.84657   0.55005   1.000
    N6      N    0.23263   0.55005   0.65348   1.000
    N7      N    0.06457   0.04982   0.15314   1.000
    N8      N    0.11408   0.65327   0.95015   1.000
    N9      N    0.20037   0.25244   0.50657   1.000
    N10     N    0.29385   0.50639   0.24770   1.000
    N11     N    0.54845   0.99304   0.25248   1.000
    N12     N    0.70613   0.49361   0.75230   1.000
    N13     N    0.45154   0.00696   0.74751   1.000
    N14     N    0.79963   0.74756   0.49343   1.000
    N15     N    0.54159   0.75248   0.00681   1.000
    Zr16    Zr   0.50000   0.00000   0.49999   1.000
    O17     O    0.61380   0.06027   0.47804   1.000
    O18     O    0.38618   0.93972   0.52195   1.000
    O19     O    0.47949   0.00332   0.59138   1.000
    O20     O    0.62210   0.89857   0.49719   1.000
    O21     O    0.52051   0.99667   0.40861   1.000
    O22     O    0.37790   0.10143   0.50280   1.000
    Zr23    Zr   0.49999   0.50001   0.99999   1.000
    O24     O    0.51824   0.60146   0.00282   1.000
    O25     O    0.65204   0.43977   0.02176   1.000
    O26     O    0.34787   0.56024   0.97819   1.000
    O27     O    0.48174   0.39855   0.99708   1.000
    O28     O    0.42579   0.50309   0.09145   1.000
    O29     O    0.57418   0.49692   0.90854   1.000
    Zr30    Zr   0.49999   0.00000   1.00000   1.000
    O31     O    0.47880   0.00297   0.89856   1.000
    O32     O    0.52119   0.99703   0.10144   1.000
    O33     O    0.48275   0.09139   0.99672   1.000
    O34     O    0.32616   0.02186   0.06019   1.000
    O35     O    0.51724   0.90861   0.00326   1.000
    O36     O    0.67382   0.97810   0.93979   1.000
    Zr37    Zr   0.99999   0.50000   0.50000   1.000
    O38     O    0.90809   0.47805   0.43970   1.000
    O39     O    0.07135   0.40860   0.50317   1.000
    O40     O    0.09189   0.52196   0.56030   1.000
    O41     O    0.11962   0.50273   0.39863   1.000
    O42     O    0.88037   0.49727   0.60138   1.000
    O43     O    0.92864   0.59140   0.49682   1.000
loop_
    _geom_bond_atom_site_label_1
    _geom_bond_atom_site_label_2
    _geom_bond_distance
    _geom_bond_site_symmetry_2
    _ccdc_geom_bond_type
    Zr16   O17       2.34359      .   S
    N4     O17       3.54944      .   S
    Zr16   O18       2.34395  1_545   S
    N5     O18       3.55052      .   S
    Zr16   O19       1.85736      .   S
    N13    O19       3.19236      .   S
    Zr16   O20       2.26719  1_545   S
    N14    O20       3.34803      .   S
    Zr16   O21       1.85721  1_545   S
    N11    O21       3.19234      .   S
    Zr16   O22       2.26716      .   S
    N9     O22       3.34800      .   S
    Zr23   O24       2.26674  1_556   S
    N15    O24       3.34795      .   S
    Zr23   O25       2.34339  1_556   S
    N3     O25       3.54913      .   S
    Zr23   O26       2.34460      .   S
    N8     O26       3.55287      .   S
    Zr23   O27       2.26708      .   S
    N0     O27       3.34780      .   S
    Zr23   O28       1.86007  1_556   S
    N10    O28       3.19788      .   S
    Zr23   O29       1.86013      .   S
    N12    O29       3.19767      .   S
    Zr30   O31       2.26678      .   S
    N13    O31       3.34760      .   S
    Zr30   O32       2.26684  1_546   S
    N11    O32       3.34748      .   S
    Zr30   O33       1.85764      .   S
    N0     O33       3.19294      .   S
    Zr30   O34       2.34403  1_556   S
    N7     O34       3.55077      .   S
    Zr30   O35       1.85763  1_546   S
    N15    O35       3.19291      .   S
    Zr30   O36       2.34395  1_545   S
    N2     O36       3.55053      .   S
    Zr37   O38       2.34356      .   S
    N1     O38       3.54972      .   S
    Zr37   O39       1.86069  1_655   S
    N9     O39       3.19877      .   S
    Zr37   O40       2.34355  1_655   S
    N6     O40       3.54966      .   S
    Zr37   O41       2.26754  1_655   S
    N10    O41       3.34849      .   S
    Zr37   O42       2.26750      .   S
    N12    O42       3.34835      .   S
    Zr37   O43       1.86069      .   S
    N14    O43       3.19875      .   S
