# CIF file generated by openbabel 2.4.90, see http://openbabel.sf.net
data_I
_chemical_name_common ''
_cell_length_a 18.425
_cell_length_b 18.434
_cell_length_c 18.434
_cell_angle_alpha 60.137
_cell_angle_beta 60.147
_cell_angle_gamma 60.15
_space_group_name_H-M_alt 'P 1'
_space_group_name_Hall 'P 1'
loop_
    _symmetry_equiv_pos_as_xyz
    x,y,z
loop_
    _atom_site_label
    _atom_site_type_symbol
    _atom_site_fract_x
    _atom_site_fract_y
    _atom_site_fract_z
    _atom_site_occupancy
    C0      C    0.11099   0.38891   0.11094   1.000
    C1      C    0.38903   0.11120   0.38910   1.000
    C2      C    0.11099   0.11096   0.38890   1.000
    C3      C    0.38903   0.38910   0.11121   1.000
    C4      C    0.11113   0.38910   0.38910   1.000
    C5      C    0.38895   0.11095   0.11094   1.000
    C6      C    0.61107   0.88904   0.88904   1.000
    C7      C    0.88889   0.61090   0.61088   1.000
    C8      C    0.88904   0.88904   0.61108   1.000
    C9      C    0.61099   0.61090   0.88878   1.000
    C10     C    0.61099   0.88880   0.61088   1.000
    C11     C    0.88903   0.61109   0.88904   1.000
