# CIF file generated by openbabel 2.4.90, see http://openbabel.sf.net
data_I
_chemical_name_common ''
_cell_length_a 18.538
_cell_length_b 16.297
_cell_length_c 16.338
_cell_angle_alpha 63.269
_cell_angle_beta 79.284
_cell_angle_gamma 100.929
_space_group_name_H-M_alt 'P 1'
_space_group_name_Hall 'P 1'
loop_
    _symmetry_equiv_pos_as_xyz
    x,y,z
loop_
    _atom_site_label
    _atom_site_type_symbol
    _atom_site_fract_x
    _atom_site_fract_y
    _atom_site_fract_z
    _atom_site_occupancy
    Fe0     Fe   0.75001   0.99999   0.49997   1.000
    Fe1     Fe   0.00000   0.50001   0.49997   1.000
    Fe2     Fe   0.50001   0.50001   0.49997   1.000
    Fe3     Fe   0.25001   0.49998   0.99998   1.000
    Fe4     Fe   0.75002   0.49999   0.99998   1.000
    Fe5     Fe   0.25002   0.99999   0.49998   1.000
    Ts6     Ts   0.71370   0.97530   0.52063   1.000
    Ts7     Ts   0.73876   0.01184   0.46095   1.000
    Ts8     Ts   0.75762   0.96156   0.49968   1.000
    Ts9     Ts   0.78632   0.02468   0.47931   1.000
    Ts10    Ts   0.76125   0.98814   0.53899   1.000
    Ts11    Ts   0.74239   0.03842   0.50026   1.000
    Ts12    Ts   0.97393   0.52055   0.50389   1.000
    Ts13    Ts   0.96946   0.46077   0.52731   1.000
    Ts14    Ts   0.00754   0.49968   0.53861   1.000
    Ts15    Ts   0.02608   0.47946   0.49605   1.000
    Ts16    Ts   0.03055   0.53925   0.47262   1.000
    Ts17    Ts   0.99247   0.50034   0.46131   1.000
    Ts18    Ts   0.47394   0.52055   0.50388   1.000
    Ts19    Ts   0.46947   0.46077   0.52732   1.000
    Ts20    Ts   0.50755   0.49968   0.53861   1.000
    Ts21    Ts   0.52609   0.47946   0.49605   1.000
    Ts22    Ts   0.53056   0.53924   0.47262   1.000
    Ts23    Ts   0.49248   0.50033   0.46133   1.000
    Ts24    Ts   0.27692   0.53869   0.96159   1.000
    Ts25    Ts   0.22603   0.50400   0.97525   1.000
    Ts26    Ts   0.23301   0.52739   0.01146   1.000
    Ts27    Ts   0.22310   0.46128   0.03836   1.000
    Ts28    Ts   0.27399   0.49598   0.02470   1.000
    Ts29    Ts   0.26700   0.47257   0.98850   1.000
    Ts30    Ts   0.77693   0.53870   0.96159   1.000
    Ts31    Ts   0.72604   0.50400   0.97526   1.000
    Ts32    Ts   0.73303   0.52740   0.01145   1.000
    Ts33    Ts   0.72311   0.46128   0.03836   1.000
    Ts34    Ts   0.77400   0.49598   0.02470   1.000
    Ts35    Ts   0.76701   0.47258   0.98850   1.000
    Ts36    Ts   0.21371   0.97530   0.52064   1.000
    Ts37    Ts   0.23877   0.01184   0.46096   1.000
    Ts38    Ts   0.25763   0.96157   0.49969   1.000
    Ts39    Ts   0.28632   0.02469   0.47932   1.000
    Ts40    Ts   0.26126   0.98815   0.53900   1.000
    Ts41    Ts   0.24240   0.03843   0.50027   1.000
loop_
    _geom_bond_atom_site_label_1
    _geom_bond_atom_site_label_2
    _geom_bond_distance
    _geom_bond_site_symmetry_2
    _ccdc_geom_bond_type
    Fe0    Ts6       0.64767      .   S
    Fe0    Ts7       0.66410  1_565   S
    Fe0    Ts8       0.66940      .   S
    Fe0    Ts9       0.64767  1_565   S
    Fe0    Ts10      0.66409      .   S
    Fe0    Ts11      0.66949  1_565   S
    Fe1    Ts12      0.64726  1_455   S
    Fe1    Ts13      0.66385  1_455   S
    Fe1    Ts14      0.66938      .   S
    Fe1    Ts15      0.64742      .   S
    Fe1    Ts16      0.66395      .   S
    Fe1    Ts17      0.66965  1_455   S
    Fe2    Ts18      0.64733      .   S
    Fe2    Ts19      0.66392      .   S
    Fe2    Ts20      0.66939      .   S
    Fe2    Ts21      0.64737      .   S
    Fe2    Ts22      0.66392      .   S
    Fe2    Ts23      0.66938      .   S
    Fe3    Ts24      0.66978      .   S
    Fe3    Ts25      0.64740      .   S
    Fe3    Ts26      0.66389  1_556   S
    Fe3    Ts27      0.66972  1_556   S
    Fe3    Ts28      0.64740  1_556   S
    Fe3    Ts29      0.66389      .   S
    Fe4    Ts30      0.66978      .   S
    Fe4    Ts31      0.64740      .   S
    Fe4    Ts32      0.66381  1_556   S
    Fe4    Ts33      0.66972  1_556   S
    Fe4    Ts34      0.64739  1_556   S
    Fe4    Ts35      0.66392      .   S
    Fe5    Ts36      0.64768      .   S
    Fe5    Ts37      0.66410  1_565   S
    Fe5    Ts38      0.66940      .   S
    Fe5    Ts39      0.64766  1_565   S
    Fe5    Ts40      0.66408      .   S
    Fe5    Ts41      0.66950  1_565   S
