# CIF file generated by openbabel 2.4.90, see http://openbabel.sf.net
data_I
_chemical_name_common ''
_cell_length_a 18.538
_cell_length_b 16.297
_cell_length_c 16.338
_cell_angle_alpha 63.269
_cell_angle_beta 79.284
_cell_angle_gamma 100.929
_space_group_name_H-M_alt 'P 1'
_space_group_name_Hall 'P 1'
loop_
    _symmetry_equiv_pos_as_xyz
    x,y,z
loop_
    _atom_site_label
    _atom_site_type_symbol
    _atom_site_fract_x
    _atom_site_fract_y
    _atom_site_fract_z
    _atom_site_occupancy
    N0      N    0.54636   0.88246   0.54996   1.000
    N1      N    0.45366   0.11751   0.44999   1.000
    N2      N    0.67847   0.45076   0.43218   1.000
    N3      N    0.32156   0.54925   0.56776   1.000
    N4      N    0.82157   0.54925   0.56776   1.000
    N5      N    0.10517   0.56756   0.88192   1.000
    N6      N    0.89487   0.43243   0.11802   1.000
    N7      N    0.04637   0.88247   0.54996   1.000
    N8      N    0.60518   0.56757   0.88192   1.000
    N9      N    0.95365   0.11751   0.44998   1.000
    N10     N    0.39486   0.43244   0.11801   1.000
    N11     N    0.17846   0.45076   0.43219   1.000
    Zr12    Zr   0.50001   0.50001   0.49997   1.000
    O13     O    0.44395   0.49760   0.52717   1.000
    O14     O    0.44562   0.52002   0.51838   1.000
    O15     O    0.55441   0.47999   0.48155   1.000
    O16     O    0.55608   0.50241   0.47277   1.000
    O17     O    0.52913   0.51677   0.60995   1.000
    O18     O    0.47090   0.48324   0.38999   1.000
    Zr19    Zr   0.75001   0.99999   0.49997   1.000
    O20     O    0.72927   0.12709   0.48313   1.000
    O21     O    0.80514   0.02493   0.50210   1.000
    O22     O    0.81453   0.03863   0.47973   1.000
    O23     O    0.77075   0.87289   0.51681   1.000
    O24     O    0.69488   0.97505   0.49784   1.000
    O25     O    0.68548   0.96135   0.52021   1.000
    Zr26    Zr   0.75002   0.49999   0.99998   1.000
    O27     O    0.79260   0.47282   0.02518   1.000
    O28     O    0.79522   0.48160   0.03876   1.000
    O29     O    0.66584   0.38986   0.12688   1.000
    O30     O    0.83420   0.61012   0.87308   1.000
    O31     O    0.70744   0.52716   0.97477   1.000
    O32     O    0.70482   0.51839   0.96119   1.000
    Zr33    Zr   0.25001   0.49998   0.99998   1.000
    O34     O    0.16583   0.38985   0.12687   1.000
    O35     O    0.20742   0.52716   0.97477   1.000
    O36     O    0.20480   0.51838   0.96119   1.000
    O37     O    0.29521   0.48159   0.03876   1.000
    O38     O    0.29259   0.47282   0.02518   1.000
    O39     O    0.33419   0.61012   0.87308   1.000
    Zr40    Zr   0.25002   0.99999   0.49998   1.000
    O41     O    0.27076   0.87290   0.51682   1.000
    O42     O    0.31454   0.03864   0.47974   1.000
    O43     O    0.30514   0.02493   0.50211   1.000
    O44     O    0.19489   0.97506   0.49784   1.000
    O45     O    0.18549   0.96135   0.52022   1.000
    O46     O    0.22927   0.12710   0.48314   1.000
    Zr47    Zr   0.00000   0.50001   0.49997   1.000
    O48     O    0.97089   0.48324   0.38999   1.000
    O49     O    0.94394   0.49760   0.52717   1.000
    O50     O    0.94561   0.52002   0.51839   1.000
    O51     O    0.02912   0.51677   0.60995   1.000
    O52     O    0.05440   0.47999   0.48156   1.000
    O53     O    0.05607   0.50241   0.47277   1.000
loop_
    _geom_bond_atom_site_label_1
    _geom_bond_atom_site_label_2
    _geom_bond_distance
    _geom_bond_site_symmetry_2
    _ccdc_geom_bond_type
    Zr12   O13       1.03755      .   S
    N3     O13       2.63859      .   S
    Zr12   O14       1.14622      .   S
    N3     O14       2.49759      .   S
    Zr12   O15       1.14625      .   S
    N2     O15       2.49762      .   S
    Zr12   O16       1.03756      .   S
    N2     O16       2.63862      .   S
    Zr12   O17       2.08348      .   S
    N8     O17       5.25481      .   S
    Zr12   O18       2.08351      .   S
    N10    O18       5.25490      .   S
    Zr19   O20       2.08398  1_565   S
    N2     O20       5.25618      .   S
    Zr19   O21       1.03890  1_565   S
    N9     O21       2.64179      .   S
    Zr19   O22       1.14747  1_565   S
    N9     O22       2.50096      .   S
    Zr19   O23       2.08388      .   S
    N4     O23       5.25602      .   S
    Zr19   O24       1.03891      .   S
    N0     O24       2.64182      .   S
    Zr19   O25       1.14748      .   S
    N0     O25       2.50099      .   S
    Zr26   O27       1.03836  1_556   S
    N6     O27       2.64046      .   S
    Zr26   O28       1.14691  1_556   S
    N6     O28       2.49963      .   S
    Zr26   O29       2.08382  1_556   S
    N1     O29       5.25538      .   S
    Zr26   O30       2.08385      .   S
    N7     O30       5.25535  1_455   S
    Zr26   O31       1.03843      .   S
    N8     O31       2.64056      .   S
    Zr26   O32       1.14696      .   S
    N8     O32       2.49977      .   S
    Zr33   O34       2.08379  1_556   S
    N9     O34       5.25528  1_655   S
    Zr33   O35       1.03840      .   S
    N5     O35       2.64059      .   S
    Zr33   O36       1.14696      .   S
    N5     O36       2.49976      .   S
    Zr33   O37       1.14694  1_556   S
    N10    O37       2.49970      .   S
    Zr33   O38       1.03839  1_556   S
    N10    O38       2.64052      .   S
    Zr33   O39       2.08387      .   S
    N0     O39       5.25540      .   S
    Zr40   O41       2.08386      .   S
    N3     O41       5.25598      .   S
    Zr40   O42       1.14746  1_565   S
    N1     O42       2.50093      .   S
    Zr40   O43       1.03888  1_565   S
    N1     O43       2.64177      .   S
    Zr40   O44       1.03891      .   S
    N7     O44       2.64181      .   S
    Zr40   O45       1.14748      .   S
    N7     O45       2.50098      .   S
    Zr40   O46       2.08399  1_565   S
    N11    O46       5.25620      .   S
    Zr47   O48       2.08357  1_455   S
    N6     O48       5.25470      .   S
    Zr47   O49       1.03742  1_455   S
    N4     O49       2.63840      .   S
    Zr47   O50       1.14612  1_455   S
    N4     O50       2.49738      .   S
    Zr47   O51       2.08347      .   S
    N5     O51       5.25479      .   S
    Zr47   O52       1.14631      .   S
    N11    O52       2.49772      .   S
    Zr47   O53       1.03763      .   S
    N11    O53       2.63873      .   S
