# CIF file generated by openbabel 2.4.90, see http://openbabel.sf.net
data_I
_chemical_name_common ''
_cell_length_a 20.935
_cell_length_b 20.946
_cell_length_c 16.318
_cell_angle_alpha 80.949
_cell_angle_beta 81.04
_cell_angle_gamma 49.407
_space_group_name_H-M_alt 'P 1'
_space_group_name_Hall 'P 1'
loop_
    _symmetry_equiv_pos_as_xyz
    x,y,z
loop_
    _atom_site_label
    _atom_site_type_symbol
    _atom_site_fract_x
    _atom_site_fract_y
    _atom_site_fract_z
    _atom_site_occupancy
    H0      H    0.34772   0.36928   0.99630   1.000
    H1      H    0.34772   0.86928   0.99630   1.000
    H2      H    0.84772   0.36928   0.99632   1.000
    H3      H    0.84772   0.86927   0.99630   1.000
    H4      H    0.19727   0.41418   0.28021   1.000
    H5      H    0.19727   0.91417   0.28021   1.000
    H6      H    0.69727   0.41417   0.28021   1.000
    H7      H    0.69727   0.91416   0.28021   1.000
    H8      H    0.04118   0.00462   0.02655   1.000
    H9      H    0.04118   0.50461   0.02655   1.000
    H10     H    0.54118   0.00462   0.02655   1.000
    H11     H    0.54118   0.50461   0.02655   1.000
    H12     H    0.13025   0.15248   0.50375   1.000
    H13     H    0.13026   0.65247   0.50375   1.000
    H14     H    0.63025   0.15248   0.50375   1.000
    H15     H    0.63025   0.65247   0.50375   1.000
    H16     H    0.08727   0.30292   0.21971   1.000
    H17     H    0.08727   0.80291   0.21971   1.000
    H18     H    0.58726   0.30292   0.21971   1.000
    H19     H    0.58727   0.80291   0.21971   1.000
    H20     H    0.49538   0.45879   0.47300   1.000
    H21     H    0.49539   0.95878   0.47300   1.000
    H22     H    0.99539   0.45879   0.47339   1.000
    H23     H    0.99539   0.95878   0.47339   1.000
    H24     H    0.15224   0.13073   0.00372   1.000
    H25     H    0.15225   0.63072   0.00372   1.000
    H26     H    0.65224   0.13072   0.00372   1.000
    H27     H    0.65224   0.63071   0.00372   1.000
    H28     H    0.30270   0.08583   0.71982   1.000
    H29     H    0.30270   0.58582   0.71982   1.000
    H30     H    0.80269   0.08582   0.71982   1.000
    H31     H    0.80269   0.58581   0.71982   1.000
    H32     H    0.45878   0.49538   0.97348   1.000
    H33     H    0.45878   0.99537   0.97348   1.000
    H34     H    0.95878   0.49538   0.97348   1.000
    H35     H    0.95878   0.99537   0.97348   1.000
    H36     H    0.36971   0.34753   0.49628   1.000
    H37     H    0.36972   0.84752   0.49628   1.000
    H38     H    0.86971   0.34753   0.49628   1.000
    H39     H    0.86971   0.84752   0.49628   1.000
    H40     H    0.41270   0.19709   0.78032   1.000
    H41     H    0.41270   0.69708   0.78032   1.000
    H42     H    0.91269   0.19709   0.78032   1.000
    H43     H    0.91270   0.69708   0.78032   1.000
    H44     H    0.00458   0.04122   0.52664   1.000
    H45     H    0.00458   0.54120   0.52664   1.000
    H46     H    0.50458   0.04122   0.52664   1.000
    H47     H    0.50458   0.54121   0.52664   1.000
    C48     C    0.28705   0.40729   0.85153   1.000
    C49     C    0.28705   0.90728   0.85153   1.000
    C50     C    0.78704   0.40729   0.85153   1.000
    C51     C    0.78704   0.90728   0.85153   1.000
    C52     C    0.23700   0.42536   0.93309   1.000
    C53     C    0.23700   0.92535   0.93309   1.000
    C54     C    0.73699   0.42535   0.93309   1.000
    C55     C    0.73699   0.92535   0.93309   1.000
    C56     C    0.28105   0.39948   0.00000   1.000
    C57     C    0.28105   0.89947   0.00000   1.000
    C58     C    0.78104   0.39948   0.00000   1.000
    C59     C    0.78105   0.89947   0.00000   1.000
    C60     C    0.23812   0.41300   0.08180   1.000
    C61     C    0.23812   0.91299   0.08180   1.000
    C62     C    0.73811   0.41300   0.08180   1.000
    C63     C    0.73812   0.91299   0.08180   1.000
    C64     C    0.19671   0.41925   0.21299   1.000
    C65     C    0.19671   0.91924   0.21299   1.000
    C66     C    0.69671   0.41925   0.21000   1.000
    C67     C    0.69671   0.91924   0.21299   1.000
    C68     C    0.15205   0.44906   0.09020   1.000
    C69     C    0.15205   0.94905   0.09020   1.000
    C70     C    0.65204   0.44906   0.09020   1.000
    C71     C    0.65204   0.94905   0.09020   1.000
    C72     C    0.10760   0.47534   0.01989   1.000
    C73     C    0.10760   0.97533   0.01989   1.000
    C74     C    0.60759   0.47534   0.01989   1.000
    C75     C    0.60759   0.97533   0.01989   1.000
    C76     C    0.91824   0.69651   0.71308   1.000
    C77     C    0.44880   0.15194   0.59020   1.000
    C78     C    0.44880   0.65193   0.59026   1.000
    C79     C    0.94880   0.15193   0.59027   1.000
    C80     C    0.14974   0.46452   0.94126   1.000
    C81     C    0.14974   0.96450   0.94126   1.000
    C82     C    0.64974   0.46451   0.94126   1.000
    C83     C    0.64974   0.96450   0.94126   1.000
    C84     C    0.09718   0.49438   0.86869   1.000
    C85     C    0.09718   0.99437   0.86869   1.000
    C86     C    0.59718   0.49438   0.86869   1.000
    C87     C    0.59718   0.99436   0.86869   1.000
    C88     C    0.09199   0.21284   0.64850   1.000
    C89     C    0.09199   0.71283   0.64850   1.000
    C90     C    0.59198   0.21284   0.64850   1.000
    C91     C    0.59198   0.71283   0.64855   1.000
    C92     C    0.07404   0.26303   0.56695   1.000
    C93     C    0.07404   0.76301   0.56695   1.000
    C94     C    0.57403   0.26303   0.56695   1.000
    C95     C    0.57404   0.76301   0.56695   1.000
    C96     C    0.10017   0.21910   0.49607   1.000
    C97     C    0.10017   0.71909   0.49607   1.000
    C98     C    0.60016   0.21910   0.49607   1.000
    C99     C    0.60016   0.71909   0.49607   1.000
    C100    C    0.08710   0.26207   0.41818   1.000
    C101    C    0.08710   0.76206   0.41818   1.000
    C102    C    0.58709   0.26207   0.41810   1.000
    C103    C    0.58710   0.76206   0.41818   1.000
    C104    C    0.08173   0.30348   0.28690   1.000
    C105    C    0.08173   0.80347   0.28690   1.000
    C106    C    0.58172   0.30348   0.28696   1.000
    C107    C    0.58173   0.80347   0.28696   1.000
    O108    O    0.06501   0.06650   0.82960   1.000
    O109    O    0.06501   0.56649   0.82960   1.000
    O110    O    0.56500   0.06650   0.82961   1.000
    O111    O    0.56501   0.56649   0.82961   1.000
    O112    O    0.08033   0.44931   0.85360   1.000
    C113    C    0.05117   0.34807   0.40977   1.000
    C114    C    0.05117   0.84806   0.40977   1.000
    C115    C    0.55116   0.34807   0.40977   1.000
    C116    C    0.55117   0.84806   0.40977   1.000
    C117    C    0.02455   0.39243   0.48007   1.000
    C118    C    0.02455   0.89242   0.48007   1.000
    C119    C    0.52455   0.39243   0.48000   1.000
    C120    C    0.52455   0.89242   0.48000   1.000
    C121    C    0.03498   0.35023   0.55874   1.000
    C122    C    0.03499   0.85022   0.55874   1.000
    C123    C    0.53499   0.35023   0.55874   1.000
    C124    C    0.53499   0.85022   0.55874   1.000
    C125    C    0.00498   0.40264   0.63128   1.000
    C126    C    0.00499   0.90263   0.63128   1.000
    C127    C    0.50499   0.40264   0.63128   1.000
    C128    C    0.50499   0.90263   0.63128   1.000
    C129    C    0.21292   0.09272   0.14850   1.000
    C130    C    0.21292   0.59271   0.14850   1.000
    C131    C    0.71291   0.09272   0.14850   1.000
    C132    C    0.71292   0.59271   0.14850   1.000
    C133    C    0.26297   0.07465   0.06694   1.000
    C134    C    0.26297   0.57464   0.06694   1.000
    C135    C    0.76296   0.07465   0.06694   1.000
    C136    C    0.76297   0.57464   0.06694   1.000
    C137    C    0.21891   0.10053   0.99606   1.000
    C138    C    0.21892   0.60052   0.99606   1.000
    C139    C    0.71891   0.10053   0.99606   1.000
    C140    C    0.71891   0.60052   0.99606   1.000
    C141    C    0.26184   0.08701   0.91823   1.000
    C142    C    0.26185   0.58700   0.91823   1.000
    C143    C    0.76184   0.08700   0.91823   1.000
    C144    C    0.76184   0.58699   0.91823   1.000
    C145    C    0.30325   0.08076   0.78704   1.000
    C146    C    0.30325   0.58075   0.78704   1.000
    C147    C    0.80325   0.08075   0.78704   1.000
    C148    C    0.80325   0.58074   0.78704   1.000
    C149    C    0.34792   0.05095   0.90983   1.000
    C150    C    0.34792   0.55094   0.90983   1.000
    C151    C    0.84791   0.05094   0.90983   1.000
    C152    C    0.84792   0.55093   0.90983   1.000
    C153    C    0.39237   0.02466   0.98014   1.000
    C154    C    0.39237   0.52465   0.98014   1.000
    C155    C    0.89236   0.02466   0.98014   1.000
    C156    C    0.89237   0.52465   0.98014   1.000
    C157    C    0.35022   0.03549   0.05877   1.000
    C158    C    0.35022   0.53548   0.05877   1.000
    C159    C    0.85022   0.03549   0.05877   1.000
    C160    C    0.85022   0.53548   0.05877   1.000
    C161    C    0.40278   0.00563   0.13134   1.000
    C162    C    0.40278   0.50562   0.13134   1.000
    C163    C    0.90278   0.00563   0.13134   1.000
    C164    C    0.90278   0.50562   0.13134   1.000
    C165    C    0.40797   0.28717   0.35149   1.000
    C166    C    0.40798   0.78716   0.35149   1.000
    C167    C    0.90797   0.28717   0.35149   1.000
    C168    C    0.90797   0.78716   0.35149   1.000
    C169    C    0.42592   0.23698   0.43308   1.000
    C170    C    0.42593   0.73697   0.43308   1.000
    C171    C    0.92592   0.23698   0.43308   1.000
    C172    C    0.92592   0.73697   0.43308   1.000
    C173    C    0.39980   0.28090   0.50397   1.000
    C174    C    0.39980   0.78089   0.50397   1.000
    C175    C    0.89980   0.28090   0.50397   1.000
    C176    C    0.89980   0.78089   0.50397   1.000
    C177    C    0.41287   0.23794   0.58185   1.000
    C178    C    0.41287   0.73793   0.58185   1.000
    C179    C    0.91287   0.23794   0.58185   1.000
    C180    C    0.91287   0.73793   0.58185   1.000
    C181    C    0.41824   0.19652   0.71308   1.000
    C182    C    0.41824   0.69651   0.71308   1.000
    C183    C    0.91824   0.19652   0.71308   1.000
    C184    C    0.94880   0.65192   0.59027   1.000
    C185    C    0.47542   0.10758   0.51996   1.000
    C186    C    0.47542   0.60757   0.51996   1.000
    C187    C    0.97542   0.10758   0.51996   1.000
    C188    C    0.97542   0.60757   0.51996   1.000
    C189    C    0.46498   0.14978   0.44129   1.000
    C190    C    0.46498   0.64977   0.44129   1.000
    C191    C    0.96498   0.14978   0.44129   1.000
    C192    C    0.96498   0.64977   0.44129   1.000
    C193    C    0.49498   0.09736   0.36875   1.000
    C194    C    0.49498   0.59735   0.36875   1.000
    C195    C    0.99498   0.09736   0.36875   1.000
    C196    C    0.99498   0.59735   0.36875   1.000
    N197    N    0.26480   0.39512   0.16125   1.000
    N198    N    0.26480   0.89511   0.16125   1.000
    N199    N    0.76480   0.39511   0.16125   1.000
    N200    N    0.76480   0.89510   0.16125   1.000
    N201    N    0.12756   0.45167   0.17454   1.000
    N202    N    0.12756   0.95166   0.17454   1.000
    N203    N    0.62756   0.45167   0.17454   1.000
    N204    N    0.62756   0.95166   0.17454   1.000
    N205    N    0.10546   0.23544   0.33870   1.000
    N206    N    0.10546   0.73543   0.33870   1.000
    N207    N    0.60545   0.23544   0.33870   1.000
    N208    N    0.60545   0.73543   0.33870   1.000
    N209    N    0.04914   0.37256   0.32540   1.000
    N210    N    0.04914   0.87255   0.32540   1.000
    N211    N    0.54913   0.37256   0.32542   1.000
    N212    N    0.54914   0.87255   0.32542   1.000
    N213    N    0.23516   0.10489   0.83878   1.000
    N214    N    0.23516   0.60488   0.83878   1.000
    N215    N    0.73516   0.10489   0.83878   1.000
    N216    N    0.73516   0.60488   0.83878   1.000
    N217    N    0.37240   0.04833   0.82549   1.000
    N218    N    0.37240   0.54833   0.82549   1.000
    N219    N    0.87240   0.04833   0.82549   1.000
    N220    N    0.87240   0.54832   0.82549   1.000
    N221    N    0.39451   0.26457   0.66132   1.000
    N222    N    0.39452   0.76456   0.66132   1.000
    N223    N    0.89451   0.26457   0.66132   1.000
    N224    N    0.89451   0.76456   0.66132   1.000
    N225    N    0.45083   0.12745   0.67462   1.000
    N226    N    0.45083   0.62744   0.67460   1.000
    N227    N    0.95082   0.12745   0.67462   1.000
    N228    N    0.95083   0.62744   0.67462   1.000
    O229    O    0.36607   0.34539   0.84990   1.000
    O230    O    0.36607   0.84538   0.84990   1.000
    O231    O    0.86607   0.34539   0.84990   1.000
    O232    O    0.86607   0.84538   0.84990   1.000
    O233    O    0.25196   0.45327   0.78434   1.000
    O234    O    0.25196   0.95326   0.78434   1.000
    O235    O    0.75195   0.45327   0.78434   1.000
    O236    O    0.75195   0.95325   0.78434   1.000
    O237    O    0.08033   0.94930   0.85362   1.000
    O238    O    0.58033   0.44930   0.85361   1.000
    O239    O    0.58033   0.94929   0.85361   1.000
    O240    O    0.15349   0.13373   0.65024   1.000
    O241    O    0.15349   0.63372   0.65024   1.000
    O242    O    0.65348   0.13372   0.65024   1.000
    O243    O    0.65348   0.63372   0.65024   1.000
    O244    O    0.04639   0.24788   0.71573   1.000
    O245    O    0.04639   0.74787   0.71573   1.000
    O246    O    0.54639   0.24789   0.71573   1.000
    O247    O    0.54639   0.74788   0.71573   1.000
    O248    O    0.43300   0.43449   0.67031   1.000
    O249    O    0.43300   0.93448   0.67031   1.000
    O250    O    0.93300   0.43449   0.67031   1.000
    O251    O    0.93300   0.93448   0.67031   1.000
    O252    O    0.04991   0.41970   0.64637   1.000
    O253    O    0.04992   0.91969   0.64637   1.000
    O254    O    0.54992   0.41970   0.64637   1.000
    O255    O    0.54992   0.91969   0.64637   1.000
    O256    O    0.13389   0.15462   0.15013   1.000
    O257    O    0.13389   0.65461   0.15013   1.000
    O258    O    0.63389   0.15462   0.15013   1.000
    O259    O    0.63389   0.65461   0.15013   1.000
    O260    O    0.24801   0.04674   0.21569   1.000
    O261    O    0.24801   0.54673   0.21569   1.000
    O262    O    0.74801   0.04674   0.21569   1.000
    O263    O    0.74801   0.54673   0.21569   1.000
    O264    O    0.43495   0.43351   0.17042   1.000
    O265    O    0.43496   0.93350   0.17042   1.000
    O266    O    0.93495   0.43351   0.17042   1.000
    O267    O    0.93495   0.93349   0.17042   1.000
    O268    O    0.41964   0.05070   0.14641   1.000
    O269    O    0.41964   0.55069   0.14641   1.000
    O270    O    0.91964   0.05069   0.14641   1.000
    O271    O    0.91964   0.55068   0.14641   1.000
    O272    O    0.34647   0.36628   0.34979   1.000
    O273    O    0.34647   0.86627   0.34900   1.000
    O274    O    0.84646   0.36628   0.34979   1.000
    O275    O    0.84646   0.86627   0.34979   1.000
    O276    O    0.45357   0.25213   0.28430   1.000
    O277    O    0.45357   0.75212   0.28430   1.000
    O278    O    0.95357   0.25213   0.28430   1.000
    O279    O    0.95357   0.75212   0.28430   1.000
    O280    O    0.06696   0.06552   0.32972   1.000
    O281    O    0.06697   0.56551   0.32970   1.000
    O282    O    0.56697   0.06552   0.32970   1.000
    O283    O    0.56697   0.56551   0.32970   1.000
    O284    O    0.45004   0.08031   0.35366   1.000
    O285    O    0.45005   0.58030   0.35366   1.000
    O286    O    0.95005   0.08031   0.35366   1.000
    O287    O    0.95005   0.58029   0.35366   1.000
loop_
    _geom_bond_atom_site_label_1
    _geom_bond_atom_site_label_2
    _geom_bond_distance
    _geom_bond_site_symmetry_2
    _ccdc_geom_bond_type
    C59    C63       1.44350      .   S
    C59    C55       1.34660  1_554   S
    C59    H3        1.09030  1_554   S
    C56    C60       1.44350      .   S
    C56    C52       1.34661  1_554   S
    C56    H0        1.09029  1_554   S
    C57    C61       1.44350      .   S
    C57    C53       1.34661  1_554   S
    C57    H1        1.09028  1_554   S
    C58    C62       1.44350      .   S
    C58    C54       1.34660  1_554   S
    C58    H2        1.09031  1_554   S
    H24    C137      1.08878  1_554   S
    H25    C138      1.08877  1_554   S
    H26    C139      1.08879  1_554   S
    H27    C140      1.08879  1_554   S
    C75    H10       1.08868  1_565   S
    C75    C71       1.39731      .   S
    C75    C83       1.39811  1_554   S
    C74    H11       1.08873      .   S
    C74    C70       1.39731      .   S
    C74    C82       1.39811  1_554   S
    C73    H8        1.08868  1_565   S
    C73    C69       1.39730      .   S
    C73    C81       1.39811  1_554   S
    C72    H9        1.08874      .   S
    C72    C68       1.39730      .   S
    C72    C80       1.39811  1_554   S
    C157   C133      1.42689      .   S
    C157   C161      1.51045      .   S
    C157   C153      1.39811  1_554   S
    C160   C136      1.42689      .   S
    C160   C164      1.51044      .   S
    C160   C156      1.39810  1_554   S
    C159   C135      1.42690      .   S
    C159   C163      1.51045      .   S
    C159   C155      1.39811  1_554   S
    C158   C134      1.42688      .   S
    C158   C162      1.51043      .   S
    C158   C154      1.39811  1_554   S
    C135   C131      1.49011      .   S
    C135   C139      1.40235  1_554   S
    C134   C130      1.49010      .   S
    C134   C138      1.40235  1_554   S
    C133   C129      1.49010      .   S
    C133   C137      1.40235  1_554   S
    C136   C132      1.49011      .   S
    C136   C140      1.40235  1_554   S
    C60    C68       1.42150      .   S
    C60    N197      1.39056      .   S
    C61    C69       1.42151      .   S
    C61    N198      1.39056      .   S
    C62    C70       1.42149      .   S
    C62    N199      1.39056      .   S
    C63    C71       1.42149      .   S
    C63    N200      1.39056      .   S
    C68    N201      1.38827      .   S
    C69    N202      1.38827      .   S
    C71    N204      1.38827      .   S
    C70    N203      1.38827      .   S
    C163   O270      1.26880      .   S
    C163   O267      1.28429  1_545   S
    C164   O271      1.26880      .   S
    C164   O266      1.28395      .   S
    C161   O268      1.26880      .   S
    C161   O265      1.28429  1_545   S
    C162   O269      1.26879      .   S
    C162   O264      1.28397      .   S
    C129   O256      1.27455      .   S
    C129   O260      1.29124      .   S
    C130   O257      1.27455      .   S
    C130   O261      1.29124      .   S
    C131   O258      1.27454      .   S
    C131   O262      1.29124      .   S
    C132   O259      1.27454      .   S
    C132   O263      1.29123      .   S
    N198   C65       1.34981      .   S
    N197   C64       1.34981      .   S
    N199   C66       1.32510      .   S
    N200   C67       1.34982      .   S
    N201   C64       1.34909      .   S
    N204   C67       1.34907      .   S
    N203   C66       1.32272      .   S
    N202   C65       1.34910      .   S
    C66    H6        1.13502      .   S
    C65    H5        1.08642      .   S
    C64    H4        1.08642      .   S
    C67    H7        1.08642      .   S
    H19    C107      1.08651      .   S
    H18    C106      1.08651      .   S
    H16    C104      1.08553      .   S
    H17    C105      1.08553      .   S
    O279   C168      1.29131      .   S
    O278   C167      1.29131      .   S
    O277   C166      1.29129      .   S
    O276   C165      1.29129      .   S
    C105   N210      1.34956      .   S
    C105   N206      1.35020      .   S
    C104   N209      1.34956      .   S
    C104   N205      1.35020      .   S
    C106   N211      1.34919      .   S
    C106   N207      1.34970      .   S
    C107   N212      1.34919      .   S
    C107   N208      1.34970      .   S
    N209   C113      1.38852      .   S
    N210   C114      1.38852      .   S
    N211   C115      1.38822      .   S
    N212   C116      1.38822      .   S
    O281   C196      1.28393  1_455   S
    O282   C193      1.28398      .   S
    O283   C194      1.28398      .   S
    O280   C195      1.28382  1_455   S
    N208   C103      1.39081      .   S
    N205   C100      1.39081      .   S
    N207   C102      1.38956      .   S
    N206   C101      1.39081      .   S
    O273   C166      1.27434      .   S
    O274   C167      1.27460      .   S
    O275   C168      1.27460      .   S
    O272   C165      1.27460      .   S
    C166   C170      1.49007      .   S
    C168   C172      1.49007      .   S
    C167   C171      1.49007      .   S
    C165   C169      1.49007      .   S
    O286   C195      1.26899      .   S
    O285   C194      1.26899      .   S
    O284   C193      1.26900      .   S
    O287   C196      1.26899      .   S
    C196   C192      1.51025      .   S
    C195   C191      1.51025      .   S
    C194   C190      1.51027      .   S
    C193   C189      1.51027      .   S
    C113   C100      1.42148      .   S
    C113   C117      1.39720      .   S
    C114   C101      1.42147      .   S
    C114   C118      1.39720      .   S
    C115   C102      1.42152      .   S
    C115   C119      1.39621      .   S
    C116   C103      1.42147      .   S
    C116   C120      1.39621      .   S
    C102   C98       1.38973      .   S
    C101   C97       1.38863      .   S
    C103   C99       1.38863      .   S
    C100   C96       1.38863      .   S
    C171   C191      1.42708      .   S
    C171   C175      1.40236      .   S
    C172   C192      1.42707      .   S
    C172   C176      1.40236      .   S
    C170   C190      1.42707      .   S
    C170   C174      1.40235      .   S
    C169   C189      1.42707      .   S
    C169   C173      1.40235      .   S
    C189   C185      1.39857      .   S
    C190   C186      1.39857      .   S
    C191   C187      1.39856      .   S
    C192   C188      1.39857      .   S
    H21    C120      1.08872      .   S
    H20    C119      1.08872      .   S
    H23    C118      1.08880  1_655   S
    H22    C117      1.08880  1_655   S
    C119   C123      1.39954      .   S
    C120   C124      1.39954      .   S
    C118   C122      1.39857      .   S
    C117   C121      1.39857      .   S
    C97    H13       1.08883      .   S
    C97    C93       1.40221      .   S
    C96    H12       1.08883      .   S
    C96    C92       1.40221      .   S
    C98    H14       1.08883      .   S
    C98    C94       1.40222      .   S
    C99    H15       1.08883      .   S
    C99    C95       1.40222      .   S
    H36    C173      1.08881      .   S
    H39    C176      1.08882      .   S
    H38    C175      1.08882      .   S
    H37    C174      1.08882      .   S
    C176   C180      1.38850      .   S
    C175   C179      1.38849      .   S
    C174   C178      1.38849      .   S
    C173   C177      1.38849      .   S
    C186   H47       1.08879      .   S
    C186   C78       1.39720      .   S
    C185   H46       1.08879      .   S
    C185   C77       1.39635      .   S
    C187   H44       1.08883  1_655   S
    C187   C79       1.39733      .   S
    C188   H45       1.08880  1_655   S
    C188   C184      1.39734      .   S
    C121   C92       1.42707      .   S
    C121   C125      1.51027      .   S
    C124   C95       1.42707      .   S
    C124   C128      1.51029      .   S
    C123   C94       1.42705      .   S
    C123   C127      1.51030      .   S
    C122   C93       1.42707      .   S
    C122   C126      1.51027      .   S
    C93    C89       1.48951      .   S
    C95    C91       1.49019      .   S
    C94    C90       1.48953      .   S
    C92    C88       1.48952      .   S
    C179   C79       1.42149      .   S
    C179   N223      1.39066      .   S
    C177   C77       1.42149      .   S
    C177   N221      1.39065      .   S
    C178   C78       1.42148      .   S
    C178   N222      1.39065      .   S
    C180   C184      1.42147      .   S
    C180   N224      1.39067      .   S
    C77    N225      1.38929      .   S
    C78    N226      1.38806      .   S
    C184   N228      1.38821      .   S
    C79    N227      1.38821      .   S
    C128   O255      1.26900      .   S
    C128   O249      1.28387      .   S
    C127   O254      1.26901      .   S
    C127   O248      1.28387      .   S
    C126   O253      1.26899      .   S
    C126   O251      1.28383  1_455   S
    C125   O252      1.26901      .   S
    C125   O250      1.28382  1_455   S
    C88    O240      1.27458      .   S
    C88    O244      1.29186      .   S
    C89    O241      1.27459      .   S
    C89    O245      1.29186      .   S
    C90    O242      1.27458      .   S
    C90    O246      1.29184      .   S
    C91    O243      1.27460      .   S
    C91    O247      1.29117      .   S
    N224   C76       1.34988      .   S
    N223   C183      1.34988      .   S
    N222   C182      1.34988      .   S
    N221   C181      1.34986      .   S
    N226   C182      1.34936      .   S
    N225   C181      1.34920      .   S
    N227   C183      1.34920      .   S
    N228   C76       1.34919      .   S
    C183   H42       1.08634      .   S
    C181   H40       1.08634      .   S
    C182   H41       1.08634      .   S
    C76    H43       1.08634      .   S
    H31    C148      1.08642      .   S
    H30    C147      1.08642      .   S
    H28    C145      1.08642      .   S
    H29    C146      1.08642      .   S
    O233   C48       1.29122      .   S
    O234   C49       1.29123      .   S
    O235   C50       1.29124      .   S
    O236   C51       1.29123      .   S
    C148   N220      1.34910      .   S
    C148   N216      1.34981      .   S
    C147   N219      1.34910      .   S
    C147   N215      1.34981      .   S
    C146   N218      1.34909      .   S
    C146   N214      1.34979      .   S
    C145   N217      1.34909      .   S
    C145   N213      1.34981      .   S
    N217   C149      1.38827      .   S
    N218   C150      1.38827      .   S
    N219   C151      1.38827      .   S
    N220   C152      1.38827      .   S
    O108   C85       1.28435  1_545   S
    O109   C84       1.28404      .   S
    O110   C87       1.28431  1_545   S
    O111   C86       1.28397      .   S
    N213   C141      1.39057      .   S
    N214   C142      1.39056      .   S
    N215   C143      1.39056      .   S
    N216   C144      1.39056      .   S
    O231   C50       1.27454      .   S
    O232   C51       1.27455      .   S
    O229   C48       1.27454      .   S
    O230   C49       1.27453      .   S
    C48    C52       1.49012      .   S
    C49    C53       1.49012      .   S
    C51    C55       1.49010      .   S
    C50    C54       1.49011      .   S
    O112   C84       1.26891      .   S
    O238   C86       1.26882      .   S
    O239   C87       1.26884      .   S
    O237   C85       1.26880      .   S
    C87    C83       1.51043      .   S
    C86    C82       1.51043      .   S
    C85    C81       1.51044      .   S
    C84    C80       1.51043      .   S
    C152   C144      1.42149      .   S
    C152   C156      1.39732      .   S
    C151   C143      1.42149      .   S
    C151   C155      1.39732      .   S
    C150   C142      1.42149      .   S
    C150   C154      1.39731      .   S
    C149   C141      1.42149      .   S
    C149   C153      1.39731      .   S
    C143   C139      1.38828      .   S
    C142   C138      1.38828      .   S
    C141   C137      1.38828      .   S
    C144   C140      1.38827      .   S
    C55    C83       1.42689      .   S
    C54    C82       1.42688      .   S
    C53    C81       1.42689      .   S
    C52    C80       1.42689      .   S
    H33    C153      1.08867  1_565   S
    H32    C154      1.08875      .   S
    H34    C156      1.08873      .   S
    H35    C155      1.08866  1_565   S
