# CIF file generated by openbabel 2.4.90, see http://openbabel.sf.net
data_I
_chemical_name_common ''
_cell_length_a 20.935
_cell_length_b 20.946
_cell_length_c 16.318
_cell_angle_alpha 80.949
_cell_angle_beta 81.04
_cell_angle_gamma 49.407
_space_group_name_H-M_alt 'P 1'
_space_group_name_Hall 'P 1'
loop_
    _symmetry_equiv_pos_as_xyz
    x,y,z
loop_
    _atom_site_label
    _atom_site_type_symbol
    _atom_site_fract_x
    _atom_site_fract_y
    _atom_site_fract_z
    _atom_site_occupancy
    N0      N    0.69380   0.43872   0.99738   1.000
    N1      N    0.69380   0.93871   0.99754   1.000
    N2      N    0.19380   0.43872   0.99754   1.000
    N3      N    0.19380   0.93871   0.99754   1.000
    N4      N    0.56116   0.30622   0.50220   1.000
    N5      N    0.56117   0.80621   0.50221   1.000
    N6      N    0.30616   0.06128   0.00227   1.000
    N7      N    0.30617   0.56128   0.00227   1.000
    N8      N    0.80616   0.06128   0.00227   1.000
    N9      N    0.80616   0.56127   0.00227   1.000
    N10     N    0.06117   0.80621   0.50223   1.000
    N11     N    0.06117   0.30622   0.50223   1.000
    N12     N    0.93879   0.19379   0.49780   1.000
    N13     N    0.93880   0.69378   0.49780   1.000
    N14     N    0.43880   0.19379   0.49779   1.000
    N15     N    0.43880   0.69378   0.49775   1.000
    Zr16    Zr   0.39596   0.35635   0.71042   1.000
    O17     O    0.40649   0.30424   0.65113   1.000
    Zr18    Zr   0.10400   0.14367   0.28961   1.000
    O19     O    0.09347   0.19577   0.34890   1.000
    Zr20    Zr   0.50813   0.99227   0.25003   1.000
    O21     O    0.52651   0.93079   0.32250   1.000
    O22     O    0.48353   0.05366   0.32492   1.000
    O23     O    0.44658   0.01683   0.17514   1.000
    O24     O    0.56947   0.97381   0.17747   1.000
    Zr25    Zr   0.10400   0.64366   0.28961   1.000
    O26     O    0.09347   0.69577   0.34890   1.000
    Zr27    Zr   0.14310   0.60363   0.78978   1.000
    O28     O    0.19538   0.59320   0.84903   1.000
    Zr29    Zr   0.49183   0.00772   0.75000   1.000
    O30     O    0.51643   0.94634   0.67510   1.000
    O31     O    0.47345   0.06921   0.67753   1.000
    O32     O    0.43049   0.02619   0.82250   1.000
    O33     O    0.55339   0.98317   0.82484   1.000
    Zr34    Zr   0.49183   0.50771   0.70000   1.000
    O35     O    0.47345   0.56920   0.64626   1.000
    O36     O    0.51643   0.44634   0.64385   1.000
    Zr37    Zr   0.35686   0.39637   0.21026   1.000
    O38     O    0.30459   0.40680   0.15095   1.000
    Zr39    Zr   0.89597   0.35634   0.71042   1.000
    O40     O    0.90649   0.30423   0.65113   1.000
    Zr41    Zr   0.39597   0.85634   0.71042   1.000
    O42     O    0.40649   0.80423   0.65112   1.000
    Zr43    Zr   0.35686   0.89636   0.21026   1.000
    O44     O    0.30459   0.90679   0.15095   1.000
    Zr45    Zr   0.85686   0.89636   0.21026   1.000
    O46     O    0.80458   0.90679   0.15095   1.000
    Zr47    Zr   0.89597   0.85633   0.71042   1.000
    O48     O    0.90649   0.80422   0.65113   1.000
    Zr49    Zr   0.99183   0.50771   0.75000   1.000
    O50     O    0.93049   0.52618   0.82250   1.000
    O51     O    0.01643   0.44634   0.67510   1.000
    O52     O    0.05339   0.48317   0.82484   1.000
    O53     O    0.97345   0.56920   0.67753   1.000
    Zr54    Zr   0.00813   0.99227   0.25003   1.000
    O55     O    0.94658   0.01683   0.17514   1.000
    O56     O    0.06948   0.97381   0.17747   1.000
    O57     O    0.98354   0.05366   0.32493   1.000
    O58     O    0.02652   0.93079   0.32250   1.000
    Zr59    Zr   0.85685   0.39637   0.21026   1.000
    O60     O    0.80458   0.40680   0.15091   1.000
    Zr61    Zr   0.00813   0.49228   0.25003   1.000
    O62     O    0.06948   0.47382   0.17747   1.000
    O63     O    0.02651   0.43080   0.32250   1.000
    O64     O    0.94658   0.51683   0.17514   1.000
    O65     O    0.98354   0.55366   0.32493   1.000
    Zr66    Zr   0.64310   0.10364   0.78978   1.000
    O67     O    0.69537   0.09321   0.84903   1.000
    Zr68    Zr   0.60400   0.64365   0.28961   1.000
    O69     O    0.59347   0.69576   0.34890   1.000
    Zr70    Zr   0.60400   0.14366   0.28961   1.000
    O71     O    0.59347   0.19577   0.34889   1.000
    Zr72    Zr   0.50813   0.49228   0.25004   1.000
    O73     O    0.48354   0.55366   0.32492   1.000
    O74     O    0.52651   0.43080   0.32250   1.000
    O75     O    0.56947   0.47382   0.17744   1.000
    O76     O    0.44658   0.51683   0.17514   1.000
    Zr77    Zr   0.14310   0.10364   0.78978   1.000
    O78     O    0.19537   0.09321   0.84903   1.000
    Zr79    Zr   0.99183   0.00772   0.75000   1.000
    O80     O    0.93048   0.02619   0.82250   1.000
    O81     O    0.05339   0.98317   0.82484   1.000
    O82     O    0.01643   0.94634   0.67510   1.000
    O83     O    0.97345   0.06921   0.67753   1.000
    Zr84    Zr   0.64310   0.60363   0.78978   1.000
    O85     O    0.69537   0.59320   0.84903   1.000
    O86     O    0.38274   0.83482   0.29543   1.000
    O87     O    0.34226   0.94931   0.15611   1.000
    O88     O    0.83456   0.88230   0.79554   1.000
    O89     O    0.94898   0.84191   0.65620   1.000
    O90     O    0.84226   0.94931   0.15611   1.000
    O91     O    0.66541   0.11770   0.20444   1.000
    O92     O    0.34226   0.44931   0.15611   1.000
    O93     O    0.38274   0.33483   0.29549   1.000
    O94     O    0.55098   0.65808   0.34382   1.000
    O95     O    0.88273   0.33483   0.29549   1.000
    O96     O    0.05098   0.15809   0.34383   1.000
    O97     O    0.44898   0.84191   0.65619   1.000
    O98     O    0.61722   0.66517   0.70454   1.000
    O99     O    0.33456   0.88230   0.79554   1.000
    O100    O    0.15770   0.05069   0.84387   1.000
    O101    O    0.61722   0.16518   0.70454   1.000
    O102    O    0.65769   0.05069   0.84387   1.000
    O103    O    0.66541   0.61769   0.20444   1.000
    O104    O    0.84226   0.44931   0.15611   1.000
    O105    O    0.88274   0.83482   0.29549   1.000
    O106    O    0.11722   0.16518   0.70454   1.000
    O107    O    0.94898   0.34192   0.65620   1.000
    O108    O    0.33455   0.38231   0.79554   1.000
    O109    O    0.15770   0.55068   0.84387   1.000
    O110    O    0.16541   0.61769   0.20444   1.000
    O111    O    0.05098   0.65808   0.34383   1.000
    O112    O    0.44898   0.34192   0.65619   1.000
    O113    O    0.16541   0.11770   0.20444   1.000
    O114    O    0.65769   0.55068   0.84383   1.000
    O115    O    0.83455   0.38231   0.79550   1.000
    O116    O    0.55098   0.15809   0.34383   1.000
    O117    O    0.11722   0.66517   0.70454   1.000
loop_
    _geom_bond_atom_site_label_1
    _geom_bond_atom_site_label_2
    _geom_bond_distance
    _geom_bond_site_symmetry_2
    _ccdc_geom_bond_type
    Zr16   O17       1.45910      .   S
    N14    O17       3.36559      .   S
    Zr18   O19       1.45904      .   S
    N11    O19       3.36549      .   S
    Zr20   O21       1.49084      .   S
    N5     O21       3.42447      .   S
    Zr20   O22       1.68783  1_565   S
    N14    O22       3.95663      .   S
    Zr20   O23       1.68785  1_565   S
    N6     O23       3.95724      .   S
    Zr20   O24       1.49159      .   S
    N1     O24       3.42695  1_556   S
    Zr25   O26       1.45903      .   S
    N10    O26       3.36548      .   S
    Zr27   O28       1.46010      .   S
    N7     O28       3.36774  1_554   S
    Zr29   O30       1.68791  1_545   S
    N5     O30       3.95689      .   S
    Zr29   O31       1.49091      .   S
    N14    O31       3.42476      .   S
    Zr29   O32       1.49095      .   S
    N6     O32       3.42485  1_554   S
    Zr29   O33       1.68712  1_545   S
    N1     O33       3.95510      .   S
    Zr34   O35       1.29628      .   S
    N15    O35       3.05014      .   S
    Zr34   O36       1.45594      .   S
    N4     O36       3.56606      .   S
    Zr37   O38       1.46083      .   S
    N2     O38       3.37005  1_556   S
    Zr39   O40       1.45908      .   S
    N12    O40       3.36554      .   S
    Zr41   O42       1.45923      .   S
    N15    O42       3.36601      .   S
    Zr43   O44       1.46082      .   S
    N3     O44       3.37003  1_556   S
    Zr45   O46       1.46081      .   S
    N1     O46       3.37001  1_556   S
    Zr47   O48       1.45909      .   S
    N13    O48       3.36556      .   S
    Zr49   O50       1.49096      .   S
    N9     O50       3.42486  1_554   S
    Zr49   O51       1.68775  1_655   S
    N11    O51       3.95654      .   S
    Zr49   O52       1.68715  1_655   S
    N2     O52       3.95521      .   S
    Zr49   O53       1.49089      .   S
    N13    O53       3.42472      .   S
    Zr54   O55       1.68787  1_465   S
    N8     O55       3.95730      .   S
    Zr54   O56       1.49159      .   S
    N3     O56       3.42696  1_556   S
    Zr54   O57       1.68784  1_465   S
    N12    O57       3.95666      .   S
    Zr54   O58       1.49085      .   S
    N10    O58       3.42466      .   S
    Zr59   O60       1.46133      .   S
    N0     O60       3.37168  1_556   S
    Zr61   O62       1.49159      .   S
    N2     O62       3.42696  1_556   S
    Zr61   O63       1.49086      .   S
    N11    O63       3.42467      .   S
    Zr61   O64       1.68790  1_455   S
    N9     O64       3.95735      .   S
    Zr61   O65       1.68773  1_455   S
    N13    O65       3.95648      .   S
    Zr66   O67       1.46011      .   S
    N8     O67       3.36775  1_554   S
    Zr68   O69       1.45898      .   S
    N5     O69       3.36530      .   S
    Zr70   O71       1.45895      .   S
    N4     O71       3.36522      .   S
    Zr72   O73       1.68755      .   S
    N15    O73       3.95599      .   S
    Zr72   O74       1.49077      .   S
    N4     O74       3.42432      .   S
    Zr72   O75       1.49210      .   S
    N0     O75       3.42858  1_556   S
    Zr72   O76       1.68792      .   S
    N7     O76       3.95737      .   S
    Zr77   O78       1.46010      .   S
    N6     O78       3.36774  1_554   S
    Zr79   O80       1.49096      .   S
    N8     O80       3.42486  1_554   S
    Zr79   O81       1.68716  1_645   S
    N3     O81       3.95514      .   S
    Zr79   O82       1.68784  1_645   S
    N10    O82       3.95669      .   S
    Zr79   O83       1.49089      .   S
    N12    O83       3.42470      .   S
    Zr84   O85       1.46011      .   S
    N9     O85       3.36776  1_554   S
    Zr43   O86       1.62750      .   S
    N15    O86       3.82499      .   S
    Zr43   O87       1.19958      .   S
    N6     O87       2.96752  1_545   S
    Zr47   O88       1.62770      .   S
    N1     O88       3.82282      .   S
    Zr47   O89       1.20326      .   S
    N10    O89       2.97577  1_455   S
    N8     O90       2.96751  1_545   S
    Zr45   O90       1.19958      .   S
    N8     O91       3.82492      .   S
    Zr70   O91       1.62838      .   S
    Zr37   O92       1.19951      .   S
    N7     O92       2.96740      .   S
    Zr37   O93       1.62827      .   S
    N14    O93       3.82476      .   S
    N15    O94       2.97529      .   S
    Zr68   O94       1.20311      .   S
    N12    O95       3.82481      .   S
    Zr59   O95       1.62828      .   S
    N12    O96       2.97573  1_655   S
    Zr18   O96       1.20325      .   S
    N5     O97       2.97592      .   S
    Zr41   O97       1.20330      .   S
    N5     O98       3.82512      .   S
    Zr84   O98       1.62841      .   S
    N3     O99       3.82279      .   S
    Zr41   O99       1.62769      .   S
    N3     O100      2.96539  1_565   S
    Zr77   O100      1.19897      .   S
    Zr66   O101      1.62843      .   S
    N4     O101      3.82518      .   S
    Zr66   O102      1.19898      .   S
    N1     O102      2.96538  1_565   S
    Zr68   O103      1.62838      .   S
    N9     O103      3.82492      .   S
    N9     O104      2.96738      .   S
    Zr59   O104      1.19950      .   S
    Zr45   O105      1.62827      .   S
    N13    O105      3.82479      .   S
    N11    O106      3.82492      .   S
    Zr77   O106      1.62834      .   S
    N11    O107      2.97577  1_455   S
    Zr39   O107      1.20326      .   S
    N2     O108      3.82277      .   S
    Zr16   O108      1.62768      .   S
    N2     O109      2.96526      .   S
    Zr27   O109      1.19889      .   S
    Zr25   O110      1.62840      .   S
    N7     O110      3.82494      .   S
    Zr25   O111      1.20323      .   S
    N13    O111      2.97573  1_655   S
    N4     O112      2.97599      .   S
    Zr16   O112      1.20332      .   S
    N6     O113      3.82494      .   S
    Zr18   O113      1.62840      .   S
    Zr84   O114      1.19848      .   S
    N0     O114      2.96373      .   S
    Zr39   O115      1.62717      .   S
    N0     O115      3.82121      .   S
    N14    O116      2.97569      .   S
    Zr70   O116      1.20322      .   S
    Zr27   O117      1.62835      .   S
    N10    O117      3.82493      .   S
