# CIF file generated by openbabel 2.4.90, see http://openbabel.sf.net
data_I
_chemical_name_common ''
_cell_length_a 20.935
_cell_length_b 20.946
_cell_length_c 16.318
_cell_angle_alpha 80.949
_cell_angle_beta 81.04
_cell_angle_gamma 49.407
_space_group_name_H-M_alt 'P 1'
_space_group_name_Hall 'P 1'
loop_
    _symmetry_equiv_pos_as_xyz
    x,y,z
loop_
    _atom_site_label
    _atom_site_type_symbol
    _atom_site_fract_x
    _atom_site_fract_y
    _atom_site_fract_z
    _atom_site_occupancy
    N0      N    0.69380   0.43872   0.99738   1.000
    N1      N    0.69380   0.93871   0.99754   1.000
    N2      N    0.19380   0.43872   0.99754   1.000
    N3      N    0.19380   0.93871   0.99754   1.000
    N4      N    0.56116   0.30622   0.50220   1.000
    N5      N    0.56117   0.80621   0.50221   1.000
    N6      N    0.30616   0.06128   0.00227   1.000
    N7      N    0.30617   0.56128   0.00227   1.000
    N8      N    0.80616   0.06128   0.00227   1.000
    N9      N    0.80616   0.56127   0.00227   1.000
    N10     N    0.06117   0.80621   0.50223   1.000
    N11     N    0.06117   0.30622   0.50223   1.000
    N12     N    0.93879   0.19379   0.49780   1.000
    N13     N    0.93880   0.69378   0.49780   1.000
    N14     N    0.43880   0.19379   0.49779   1.000
    N15     N    0.43880   0.69378   0.49775   1.000
    Zr16    Zr   0.39596   0.35635   0.71042   1.000
    O17     O    0.40649   0.30424   0.65113   1.000
    O18     O    0.44189   0.35358   0.65335   1.000
    O19     O    0.45607   0.33026   0.65903   1.000
    O20     O    0.32742   0.38906   0.79144   1.000
    O21     O    0.34169   0.37557   0.79964   1.000
    Zr22    Zr   0.10400   0.14367   0.28961   1.000
    O23     O    0.09347   0.19577   0.34890   1.000
    O24     O    0.04389   0.16976   0.34099   1.000
    O25     O    0.17254   0.11096   0.20853   1.000
    O26     O    0.05807   0.14643   0.34667   1.000
    O27     O    0.15827   0.12444   0.20034   1.000
    Zr28    Zr   0.50813   0.99227   0.25003   1.000
    O29     O    0.52651   0.93079   0.32250   1.000
    O30     O    0.48353   0.05366   0.32492   1.000
    O31     O    0.44658   0.01683   0.17514   1.000
    O32     O    0.56947   0.97381   0.17747   1.000
    Zr33    Zr   0.10400   0.64366   0.28961   1.000
    O34     O    0.09347   0.69577   0.34890   1.000
    O35     O    0.04389   0.66975   0.34099   1.000
    O36     O    0.15828   0.62443   0.20034   1.000
    O37     O    0.17254   0.61095   0.20853   1.000
    O38     O    0.05807   0.64642   0.34667   1.000
    Zr39    Zr   0.14310   0.60363   0.78978   1.000
    O40     O    0.16938   0.54361   0.84104   1.000
    O41     O    0.14602   0.55776   0.84670   1.000
    O42     O    0.19538   0.59320   0.84903   1.000
    O43     O    0.11053   0.67231   0.70864   1.000
    O44     O    0.12392   0.65804   0.70045   1.000
    Zr45    Zr   0.49183   0.00772   0.75000   1.000
    O46     O    0.51643   0.94634   0.67510   1.000
    O47     O    0.47345   0.06921   0.67753   1.000
    O48     O    0.43049   0.02619   0.82250   1.000
    O49     O    0.55339   0.98317   0.82484   1.000
    Zr50    Zr   0.49183   0.50771   0.70000   1.000
    O51     O    0.47345   0.56920   0.64626   1.000
    O52     O    0.51643   0.44634   0.64385   1.000
    Zr53    Zr   0.35686   0.39637   0.21026   1.000
    O54     O    0.30459   0.40680   0.15095   1.000
    O55     O    0.33058   0.45639   0.15894   1.000
    O56     O    0.35395   0.44224   0.15328   1.000
    O57     O    0.37604   0.34196   0.29958   1.000
    O58     O    0.38943   0.32770   0.29140   1.000
    Zr59    Zr   0.89597   0.35634   0.71042   1.000
    O60     O    0.95607   0.33025   0.65904   1.000
    O61     O    0.94189   0.35358   0.65336   1.000
    O62     O    0.90649   0.30423   0.65113   1.000
    O63     O    0.84169   0.37557   0.79959   1.000
    O64     O    0.82742   0.38905   0.79140   1.000
    Zr65    Zr   0.39597   0.85634   0.71042   1.000
    O66     O    0.40649   0.80423   0.65112   1.000
    O67     O    0.32742   0.88905   0.79144   1.000
    O68     O    0.34169   0.87556   0.79964   1.000
    O69     O    0.45607   0.83025   0.65903   1.000
    O70     O    0.44190   0.85357   0.65335   1.000
    Zr71    Zr   0.35686   0.89636   0.21026   1.000
    O72     O    0.37605   0.84195   0.29948   1.000
    O73     O    0.38943   0.82768   0.29139   1.000
    O74     O    0.30459   0.90679   0.15095   1.000
    O75     O    0.33058   0.95639   0.15894   1.000
    O76     O    0.35395   0.94223   0.15328   1.000
    Zr77    Zr   0.85686   0.89636   0.21026   1.000
    O78     O    0.85394   0.94223   0.15328   1.000
    O79     O    0.80458   0.90679   0.15095   1.000
    O80     O    0.83058   0.95639   0.15894   1.000
    O81     O    0.88943   0.82768   0.29140   1.000
    O82     O    0.87604   0.84195   0.29959   1.000
    Zr83    Zr   0.89597   0.85633   0.71042   1.000
    O84     O    0.94190   0.85357   0.65336   1.000
    O85     O    0.90649   0.80422   0.65113   1.000
    O86     O    0.84169   0.87556   0.79964   1.000
    O87     O    0.82742   0.88904   0.79144   1.000
    O88     O    0.95607   0.83024   0.65904   1.000
    Zr89    Zr   0.99183   0.50771   0.75000   1.000
    O90     O    0.93049   0.52618   0.82250   1.000
    O91     O    0.01643   0.44634   0.67510   1.000
    O92     O    0.05339   0.48317   0.82484   1.000
    O93     O    0.97345   0.56920   0.67753   1.000
    Zr94    Zr   0.00813   0.99227   0.25003   1.000
    O95     O    0.94658   0.01683   0.17514   1.000
    O96     O    0.06948   0.97381   0.17747   1.000
    O97     O    0.98354   0.05366   0.32493   1.000
    O98     O    0.02652   0.93079   0.32250   1.000
    Zr99    Zr   0.85685   0.39637   0.21026   1.000
    O100    O    0.85394   0.44224   0.15328   1.000
    O101    O    0.87604   0.34196   0.29959   1.000
    O102    O    0.88943   0.32769   0.29140   1.000
    O103    O    0.80458   0.40680   0.15091   1.000
    O104    O    0.83058   0.45639   0.15894   1.000
    Zr105   Zr   0.00813   0.49228   0.25003   1.000
    O106    O    0.06948   0.47382   0.17747   1.000
    O107    O    0.02651   0.43080   0.32250   1.000
    O108    O    0.94658   0.51683   0.17514   1.000
    O109    O    0.98354   0.55366   0.32493   1.000
    Zr110   Zr   0.64310   0.10364   0.78978   1.000
    O111    O    0.64601   0.05777   0.84670   1.000
    O112    O    0.69537   0.09321   0.84903   1.000
    O113    O    0.61052   0.17231   0.70863   1.000
    O114    O    0.62391   0.15804   0.70044   1.000
    O115    O    0.66938   0.04361   0.84104   1.000
    Zr116   Zr   0.60400   0.64365   0.28961   1.000
    O117    O    0.67254   0.61094   0.20853   1.000
    O118    O    0.54390   0.66974   0.34098   1.000
    O119    O    0.65828   0.62443   0.20034   1.000
    O120    O    0.59347   0.69576   0.34890   1.000
    O121    O    0.55807   0.64642   0.34666   1.000
    Zr122   Zr   0.60400   0.14366   0.28961   1.000
    O123    O    0.59347   0.19577   0.34889   1.000
    O124    O    0.54389   0.16975   0.34099   1.000
    O125    O    0.55807   0.14643   0.34667   1.000
    O126    O    0.67254   0.11095   0.20853   1.000
    O127    O    0.65827   0.12444   0.20034   1.000
    Zr128   Zr   0.50813   0.49228   0.25004   1.000
    O129    O    0.48354   0.55366   0.32492   1.000
    O130    O    0.52651   0.43080   0.32250   1.000
    O131    O    0.56947   0.47382   0.17744   1.000
    O132    O    0.44658   0.51683   0.17514   1.000
    Zr133   Zr   0.14310   0.10364   0.78978   1.000
    O134    O    0.16938   0.04361   0.84104   1.000
    O135    O    0.14601   0.05777   0.84670   1.000
    O136    O    0.12392   0.15805   0.70045   1.000
    O137    O    0.19537   0.09321   0.84903   1.000
    O138    O    0.11053   0.17232   0.70864   1.000
    Zr139   Zr   0.99183   0.00772   0.75000   1.000
    O140    O    0.93048   0.02619   0.82250   1.000
    O141    O    0.05339   0.98317   0.82484   1.000
    O142    O    0.01643   0.94634   0.67510   1.000
    O143    O    0.97345   0.06921   0.67753   1.000
    Zr144   Zr   0.64310   0.60363   0.78978   1.000
    O145    O    0.62391   0.65803   0.70044   1.000
    O146    O    0.69537   0.59320   0.84903   1.000
    O147    O    0.61053   0.67230   0.70863   1.000
    O148    O    0.64601   0.55776   0.84666   1.000
    O149    O    0.66938   0.54361   0.84100   1.000
loop_
    _geom_bond_atom_site_label_1
    _geom_bond_atom_site_label_2
    _geom_bond_distance
    _geom_bond_site_symmetry_2
    _ccdc_geom_bond_type
    Zr16   O17       1.45910      .   S
    N14    O17       3.36559      .   S
    Zr16   O18       1.20859      .   S
    N4     O18       2.98835      .   S
    Zr16   O19       1.22710      .   S
    N4     O19       2.97545      .   S
    Zr16   O20       1.64044      .   S
    N2     O20       3.82120      .   S
    Zr16   O21       1.62679      .   S
    N2     O21       3.82941      .   S
    Zr22   O23       1.45904      .   S
    N11    O23       3.36549      .   S
    Zr22   O24       1.22703      .   S
    N12    O24       2.97519  1_655   S
    Zr22   O25       1.64112      .   S
    N6     O25       3.82342      .   S
    Zr22   O26       1.20852      .   S
    N12    O26       2.98809  1_655   S
    Zr22   O27       1.62755      .   S
    N6     O27       3.83154      .   S
    Zr28   O29       1.49084      .   S
    N5     O29       3.42447      .   S
    Zr28   O30       1.68783  1_565   S
    N14    O30       3.95663      .   S
    Zr28   O31       1.68785  1_565   S
    N6     O31       3.95724      .   S
    Zr28   O32       1.49159      .   S
    N1     O32       3.42695  1_556   S
    Zr33   O34       1.45903      .   S
    N10    O34       3.36548      .   S
    Zr33   O35       1.22702      .   S
    N13    O35       2.97518  1_655   S
    Zr33   O36       1.62755      .   S
    N7     O36       3.83154      .   S
    Zr33   O37       1.64112      .   S
    N7     O37       3.82342      .   S
    Zr33   O38       1.20849      .   S
    N13    O38       2.98810  1_655   S
    Zr39   O40       1.22284      .   S
    N2     O40       2.96474      .   S
    Zr39   O41       1.20421      .   S
    N2     O41       2.97768      .   S
    Zr39   O42       1.46010      .   S
    N7     O42       3.36774  1_554   S
    Zr39   O43       1.64101      .   S
    N10    O43       3.82349      .   S
    Zr39   O44       1.62755      .   S
    N10    O44       3.83144      .   S
    Zr45   O46       1.68791  1_545   S
    N5     O46       3.95689      .   S
    Zr45   O47       1.49091      .   S
    N14    O47       3.42476      .   S
    Zr45   O48       1.49095      .   S
    N6     O48       3.42485  1_554   S
    Zr45   O49       1.68712  1_545   S
    N1     O49       3.95510      .   S
    Zr50   O51       1.29628      .   S
    N15    O51       3.05014      .   S
    Zr50   O52       1.45594      .   S
    N4     O52       3.56606      .   S
    Zr53   O54       1.46083      .   S
    N2     O54       3.37005  1_556   S
    Zr53   O55       1.22341      .   S
    N7     O55       2.96692      .   S
    Zr53   O56       1.20486      .   S
    N7     O56       2.97977      .   S
    Zr53   O57       1.62747      .   S
    N14    O57       3.83128      .   S
    Zr53   O58       1.64094      .   S
    N14    O58       3.82332      .   S
    Zr59   O60       1.22704      .   S
    N11    O60       2.97523  1_455   S
    Zr59   O61       1.20853      .   S
    N11    O61       2.98813  1_455   S
    Zr59   O62       1.45908      .   S
    N12    O62       3.36554      .   S
    Zr59   O63       1.62625      .   S
    N0     O63       3.82789      .   S
    Zr59   O64       1.63997      .   S
    N0     O64       3.81960      .   S
    Zr65   O66       1.45923      .   S
    N15    O66       3.36601      .   S
    Zr65   O67       1.64045      .   S
    N3     O67       3.82122      .   S
    Zr65   O68       1.62680      .   S
    N3     O68       3.82943      .   S
    Zr65   O69       1.22708      .   S
    N5     O69       2.97538      .   S
    Zr65   O70       1.20857      .   S
    N5     O70       2.98828      .   S
    Zr71   O72       1.62600      .   S
    N15    O72       3.83212      .   S
    Zr71   O73       1.64081      .   S
    N15    O73       3.82290      .   S
    Zr71   O74       1.46082      .   S
    N3     O74       3.37003  1_556   S
    Zr71   O75       1.22350      .   S
    N6     O75       2.96702  1_545   S
    Zr71   O76       1.20491      .   S
    N6     O76       2.97991  1_545   S
    Zr77   O78       1.20491      .   S
    N8     O78       2.97990  1_545   S
    Zr77   O79       1.46081      .   S
    N1     O79       3.37001  1_556   S
    Zr77   O80       1.22350      .   S
    N8     O80       2.96702  1_545   S
    Zr77   O81       1.64094      .   S
    N13    O81       3.82335      .   S
    Zr77   O82       1.62748      .   S
    N13    O82       3.83130      .   S
    Zr83   O84       1.20852      .   S
    N10    O84       2.98813  1_455   S
    Zr83   O85       1.45909      .   S
    N13    O85       3.36556      .   S
    Zr83   O86       1.62681      .   S
    N1     O86       3.82946      .   S
    Zr83   O87       1.64047      .   S
    N1     O87       3.82124      .   S
    Zr83   O88       1.22704      .   S
    N10    O88       2.97523  1_455   S
    Zr89   O90       1.49096      .   S
    N9     O90       3.42486  1_554   S
    Zr89   O91       1.68775  1_655   S
    N11    O91       3.95654      .   S
    Zr89   O92       1.68715  1_655   S
    N2     O92       3.95521      .   S
    Zr89   O93       1.49089      .   S
    N13    O93       3.42472      .   S
    Zr94   O95       1.68787  1_465   S
    N8     O95       3.95730      .   S
    Zr94   O96       1.49159      .   S
    N3     O96       3.42696  1_556   S
    Zr94   O97       1.68784  1_465   S
    N12    O97       3.95666      .   S
    Zr94   O98       1.49085      .   S
    N10    O98       3.42466      .   S
    Zr99   O100      1.20485      .   S
    N9     O100      2.97976      .   S
    Zr99   O101      1.62748      .   S
    N12    O101      3.83132      .   S
    Zr99   O102      1.64095      .   S
    N12    O102      3.82337      .   S
    Zr99   O103      1.46133      .   S
    N0     O103      3.37168  1_556   S
    Zr99   O104      1.22341      .   S
    N9     O104      2.96691      .   S
    Zr105  O106      1.49159      .   S
    N2     O106      3.42696  1_556   S
    Zr105  O107      1.49086      .   S
    N11    O107      3.42467      .   S
    Zr105  O108      1.68790  1_455   S
    N9     O108      3.95735      .   S
    Zr105  O109      1.68773  1_455   S
    N13    O109      3.95648      .   S
    Zr110  O111      1.20428      .   S
    N1     O111      2.97782  1_565   S
    Zr110  O112      1.46011      .   S
    N8     O112      3.36775  1_554   S
    Zr110  O113      1.64110      .   S
    N4     O113      3.82374      .   S
    Zr110  O114      1.62763      .   S
    N4     O114      3.83169      .   S
    Zr110  O115      1.22293      .   S
    N1     O115      2.96486  1_565   S
    Zr116  O117      1.64110      .   S
    N9     O117      3.82340      .   S
    Zr116  O118      1.22691      .   S
    N15    O118      2.97473      .   S
    Zr116  O119      1.62753      .   S
    N9     O119      3.83151      .   S
    Zr116  O120      1.45898      .   S
    N5     O120      3.36530      .   S
    Zr116  O121      1.20836      .   S
    N15    O121      2.98768      .   S
    Zr122  O123      1.45895      .   S
    N4     O123      3.36522      .   S
    Zr122  O124      1.22702      .   S
    N14    O124      2.97513      .   S
    Zr122  O125      1.20847      .   S
    N14    O125      2.98806      .   S
    Zr122  O126      1.64110      .   S
    N8     O126      3.82339      .   S
    Zr122  O127      1.62753      .   S
    N8     O127      3.83151      .   S
    Zr128  O129      1.68755      .   S
    N15    O129      3.95599      .   S
    Zr128  O130      1.49077      .   S
    N4     O130      3.42432      .   S
    Zr128  O131      1.49210      .   S
    N0     O131      3.42858  1_556   S
    Zr128  O132      1.68792      .   S
    N7     O132      3.95737      .   S
    Zr133  O134      1.22293      .   S
    N3     O134      2.96486  1_565   S
    Zr133  O135      1.20427      .   S
    N3     O135      2.97783  1_565   S
    Zr133  O136      1.62754      .   S
    N11    O136      3.83143      .   S
    Zr133  O137      1.46010      .   S
    N6     O137      3.36774  1_554   S
    Zr133  O138      1.64101      .   S
    N11    O138      3.82348      .   S
    Zr139  O140      1.49096      .   S
    N8     O140      3.42486  1_554   S
    Zr139  O141      1.68716  1_645   S
    N3     O141      3.95514      .   S
    Zr139  O142      1.68784  1_645   S
    N10    O142      3.95669      .   S
    Zr139  O143      1.49089      .   S
    N12    O143      3.42470      .   S
    Zr144  O145      1.62761      .   S
    N5     O145      3.83162      .   S
    Zr144  O146      1.46011      .   S
    N9     O146      3.36776  1_554   S
    Zr144  O147      1.64107      .   S
    N5     O147      3.82367      .   S
    Zr144  O148      1.20379      .   S
    N0     O148      2.97617      .   S
    Zr144  O149      1.22245      .   S
    N0     O149      2.96320      .   S
