# CIF file generated by openbabel 2.4.90, see http://openbabel.sf.net
data_I
_chemical_name_common ''
_cell_length_a 14.95
_cell_length_b 14.892
_cell_length_c 13.081
_cell_angle_alpha 90
_cell_angle_beta 90
_cell_angle_gamma 90
_space_group_name_H-M_alt 'P 1'
_space_group_name_Hall 'P 1'
loop_
    _symmetry_equiv_pos_as_xyz
    x,y,z
loop_
    _atom_site_label
    _atom_site_type_symbol
    _atom_site_fract_x
    _atom_site_fract_y
    _atom_site_fract_z
    _atom_site_occupancy
    C0      C    0.83752   0.99875   0.90138   1.000
    C1      C    0.83751   0.50139   0.90130   1.000
    C2      C    0.66271   0.99852   0.90139   1.000
    C3      C    0.66269   0.50141   0.90148   1.000
    C4      C    0.66269   0.99854   0.09866   1.000
    C5      C    0.66276   0.50143   0.09869   1.000
    C6      C    0.83748   0.99876   0.09877   1.000
    C7      C    0.83755   0.50140   0.09875   1.000
    N8      N    0.89403   0.99946   0.83958   1.000
    N9      N    0.89395   0.50073   0.83940   1.000
    N10     N    0.60612   0.99905   0.83969   1.000
    N11     N    0.60603   0.50081   0.83986   1.000
    N12     N    0.60606   0.99909   0.16033   1.000
    N13     N    0.60612   0.50083   0.16033   1.000
    N14     N    0.89398   0.99946   0.16058   1.000
    N15     N    0.89402   0.50075   0.16060   1.000
loop_
    _geom_bond_atom_site_label_1
    _geom_bond_atom_site_label_2
    _geom_bond_distance
    _geom_bond_site_symmetry_2
    _ccdc_geom_bond_type
    C4     N12       1.16936      .   S
    C5     N13       1.16935      .   S
    C7     N15       1.16930      .   S
    C6     N14       1.16928      .   S
    N9     C1        1.16946      .   S
    N8     C0        1.16933      .   S
    N10    C2        1.16929      .   S
    N11    C3        1.16935      .   S
