# CIF file generated by openbabel 2.4.90, see http://openbabel.sf.net
data_I
_chemical_name_common ''
_cell_length_a 14.95
_cell_length_b 14.892
_cell_length_c 13.081
_cell_angle_alpha 90
_cell_angle_beta 90
_cell_angle_gamma 90
_space_group_name_H-M_alt 'P 1'
_space_group_name_Hall 'P 1'
loop_
    _symmetry_equiv_pos_as_xyz
    x,y,z
loop_
    _atom_site_label
    _atom_site_type_symbol
    _atom_site_fract_x
    _atom_site_fract_y
    _atom_site_fract_z
    _atom_site_occupancy
    Zn0     Zn   0.00005   0.50007   0.75071   1.000
    Zn1     Zn   0.50011   0.99998   0.75070   1.000
    Zn2     Zn   0.50007   0.50003   0.75079   1.000
    Zn3     Zn   0.00012   0.00002   0.24919   1.000
    Zn4     Zn   0.00011   0.50007   0.24928   1.000
    Zn5     Zn   0.50006   0.99998   0.24927   1.000
    Zn6     Zn   0.50005   0.50003   0.24900   1.000
    Ni7     Ni   0.25025   0.99824   0.99992   1.000
    Ni8     Ni   0.25010   0.50175   0.99995   1.000
    Ni9     Ni   0.00178   0.25003   0.49999   1.000
    Ni10    Ni   0.00182   0.75015   0.49999   1.000
    Ni11    Ni   0.50179   0.25006   0.49999   1.000
    Ni12    Ni   0.49822   0.74997   0.49999   1.000
    C13     C    0.33761   0.99887   0.90100   1.000
    C14     C    0.33745   0.50125   0.90129   1.000
    C15     C    0.83752   0.99875   0.90138   1.000
    C16     C    0.83751   0.50139   0.90130   1.000
    C17     C    0.16276   0.99869   0.90135   1.000
    C18     C    0.16260   0.50134   0.90142   1.000
    C19     C    0.66271   0.99852   0.90139   1.000
    C20     C    0.66269   0.50141   0.90148   1.000
    C21     C    0.00130   0.33759   0.40108   1.000
    C22     C    0.00137   0.83771   0.40117   1.000
    C23     C    0.50132   0.33761   0.40107   1.000
    C24     C    0.49859   0.83758   0.40120   1.000
    C25     C    0.00140   0.16247   0.40106   1.000
    C26     C    0.00142   0.66252   0.40120   1.000
    C27     C    0.50142   0.16249   0.40107   1.000
    C28     C    0.49863   0.66240   0.40116   1.000
    C29     C    0.16272   0.99868   0.09844   1.000
    Zn30    Zn   0.00008   0.00002   0.75078   1.000
    C31     C    0.16266   0.50132   0.09854   1.000
    C32     C    0.66269   0.99854   0.09866   1.000
    C33     C    0.66276   0.50143   0.09869   1.000
    C34     C    0.33758   0.99885   0.09859   1.000
    C35     C    0.33751   0.50122   0.09855   1.000
    C36     C    0.83748   0.99876   0.09877   1.000
    C37     C    0.83755   0.50140   0.09875   1.000
    C38     C    0.00127   0.33759   0.59890   1.000
    C39     C    0.00130   0.83771   0.59880   1.000
    C40     C    0.50138   0.33760   0.59893   1.000
    C41     C    0.49862   0.83757   0.59879   1.000
    C42     C    0.00132   0.16247   0.59892   1.000
    C43     C    0.00137   0.66253   0.59878   1.000
    C44     C    0.50148   0.16248   0.59889   1.000
    C45     C    0.49870   0.66239   0.59880   1.000
    N46     N    0.39417   0.99974   0.83957   1.000
    N47     N    0.39404   0.50042   0.83958   1.000
    N48     N    0.89403   0.99946   0.83958   1.000
    N49     N    0.89395   0.50073   0.83940   1.000
    N50     N    0.10603   0.99942   0.83983   1.000
    N51     N    0.10590   0.50060   0.83986   1.000
    N52     N    0.60612   0.99905   0.83969   1.000
    N53     N    0.60603   0.50081   0.83986   1.000
    N54     N    0.00065   0.39391   0.33879   1.000
    N55     N    0.00076   0.89413   0.33900   1.000
    N56     N    0.50072   0.39391   0.33870   1.000
    N57     N    0.49924   0.89407   0.33910   1.000
    N58     N    0.00081   0.10616   0.33875   1.000
    N59     N    0.00082   0.60603   0.33912   1.000
    N60     N    0.50085   0.10615   0.33880   1.000
    N61     N    0.49929   0.60597   0.33901   1.000
    N62     N    0.10598   0.99942   0.15995   1.000
    N63     N    0.10598   0.50058   0.16013   1.000
    N64     N    0.60606   0.99909   0.16033   1.000
    N65     N    0.60612   0.50083   0.16033   1.000
    N66     N    0.39411   0.99970   0.16035   1.000
    N67     N    0.39412   0.50038   0.16023   1.000
    N68     N    0.89398   0.99946   0.16058   1.000
    N69     N    0.89402   0.50075   0.16060   1.000
    N70     N    0.00059   0.39392   0.66110   1.000
    N71     N    0.00064   0.89414   0.66090   1.000
    N72     N    0.50081   0.39389   0.66126   1.000
    N73     N    0.49928   0.89405   0.66089   1.000
    N74     N    0.00067   0.10617   0.66124   1.000
    N75     N    0.00075   0.60603   0.66087   1.000
    N76     N    0.50096   0.10613   0.66115   1.000
    N77     N    0.49940   0.60595   0.66095   1.000
loop_
    _geom_bond_atom_site_label_1
    _geom_bond_atom_site_label_2
    _geom_bond_distance
    _geom_bond_site_symmetry_2
    _ccdc_geom_bond_type
    C29    N62       1.16925      .   S
    C29    Ni7       1.83670  1_554   S
    C31    N63       1.16928      .   S
    C31    Ni8       1.83638  1_554   S
    C35    N67       1.16927      .   S
    C35    Ni8       1.83614  1_554   S
    C34    N66       1.16924      .   S
    C34    Ni7       1.83589  1_554   S
    C32    N64       1.16936      .   S
    C33    N65       1.16935      .   S
    C37    N69       1.16930      .   S
    C36    N68       1.16928      .   S
    N62    Zn3       1.96647  1_565   S
    N63    Zn4       1.96602      .   S
    N67    Zn6       1.96381      .   S
    N65    Zn6       1.96466      .   S
    N64    Zn5       1.96602      .   S
    N66    Zn5       1.96509      .   S
    N68    Zn3       1.96515  1_665   S
    N69    Zn4       1.96499  1_655   S
    Zn6    N56       1.96839      .   S
    Zn6    N61       1.96859      .   S
    Zn3    N58       1.96754      .   S
    Zn3    N55       1.96643  1_545   S
    Zn5    N60       1.96753  1_565   S
    Zn5    N57       1.96695      .   S
    Zn4    N54       1.96726      .   S
    Zn4    N59       1.96751      .   S
    N56    C23       1.16988      .   S
    N58    C25       1.16941      .   S
    N54    C21       1.16945      .   S
    N60    C27       1.16944      .   S
    N55    C22       1.16934      .   S
    N61    C28       1.16926      .   S
    N57    C24       1.16938      .   S
    N59    C26       1.16936      .   S
    C25    Ni9       1.83712      .   S
    C23    Ni11      1.83690      .   S
    C27    Ni11      1.83718      .   S
    C21    Ni9       1.83693      .   S
    C28    Ni12      1.83628      .   S
    C22    Ni10      1.83611      .   S
    C26    Ni10      1.83655      .   S
    C24    Ni12      1.83644      .   S
    Ni9    C38       1.83701      .   S
    Ni9    C42       1.83706      .   S
    Ni12   C41       1.83642      .   S
    Ni12   C45       1.83624      .   S
    Ni11   C44       1.83711      .   S
    Ni11   C40       1.83696      .   S
    Ni10   C43       1.83652      .   S
    Ni10   C39       1.83606      .   S
    C43    N75       1.16939      .   S
    C41    N73       1.16934      .   S
    C39    N71       1.16875      .   S
    C45    N77       1.16932      .   S
    C44    N76       1.16940      .   S
    C38    N70       1.16864      .   S
    C42    N74       1.16949      .   S
    C40    N72       1.16941      .   S
    N75    Zn0       1.96758      .   S
    N73    Zn1       1.96697      .   S
    N71    Zn30      1.96692  1_565   S
    N77    Zn2       1.96707      .   S
    N70    Zn0       1.96798      .   S
    N76    Zn1       1.96751  1_545   S
    N74    Zn30      1.96743      .   S
    N72    Zn2       1.96729      .   S
    Zn1    N46       1.96473      .   S
    Zn1    N52       1.96644      .   S
    Zn0    N49       1.96525  1_455   S
    Zn0    N51       1.96574      .   S
    Zn30   N48       1.96542  1_445   S
    Zn30   N50       1.96617  1_545   S
    Zn2    N47       1.96522      .   S
    Zn2    N53       1.96644      .   S
    N49    C16       1.16946      .   S
    N46    C13       1.16653      .   S
    N48    C15       1.16933      .   S
    N47    C14       1.16931      .   S
    N52    C19       1.16929      .   S
    N50    C17       1.16929      .   S
    N51    C18       1.16931      .   S
    N53    C20       1.16935      .   S
    C13    Ni7       1.83850      .   S
    C14    Ni8       1.83606      .   S
    C17    Ni7       1.83667      .   S
    C18    Ni8       1.83637      .   S
