# CIF file generated by openbabel 2.4.90, see http://openbabel.sf.net
data_I
_chemical_name_common ''
_cell_length_a 13.217
_cell_length_b 14.829
_cell_length_c 21.942
_cell_angle_alpha 89.925
_cell_angle_beta 90.037
_cell_angle_gamma 90.032
_space_group_name_H-M_alt 'P 1'
_space_group_name_Hall 'P 1'
loop_
    _symmetry_equiv_pos_as_xyz
    x,y,z
loop_
    _atom_site_label
    _atom_site_type_symbol
    _atom_site_fract_x
    _atom_site_fract_y
    _atom_site_fract_z
    _atom_site_occupancy
    Zr0     Zr   0.41713   0.48460   0.80045   1.000
    Zr1     Zr   0.91974   0.48460   0.80251   1.000
    Zr2     Zr   0.33317   0.51550   0.30120   1.000
    Zr3     Zr   0.83114   0.51545   0.30104   1.000
    Zr4     Zr   0.08054   0.98458   0.69869   1.000
    Zr5     Zr   0.58280   0.98453   0.69875   1.000
    Zr6     Zr   0.16854   0.01516   0.19747   1.000
    Zr7     Zr   0.66712   0.01558   0.19784   1.000
    Zr8     Zr   0.38582   0.50267   0.17565   1.000
    Zr9     Zr   0.88391   0.50276   0.17550   1.000
    Zr10    Zr   0.28359   0.44626   0.89158   1.000
    Zr11    Zr   0.78336   0.44621   0.89154   1.000
    Zr12    Zr   0.36099   0.49758   0.67652   1.000
    Zr13    Zr   0.86724   0.49716   0.67671   1.000
    Zr14    Zr   0.46732   0.55378   0.39225   1.000
    Zr15    Zr   0.96587   0.55377   0.39090   1.000
    Zr16    Zr   0.11632   0.00000   0.32309   1.000
    Zr17    Zr   0.61423   0.00000   0.32325   1.000
    Zr18    Zr   0.21638   0.94668   0.60852   1.000
    Zr19    Zr   0.71841   0.94653   0.60857   1.000
    Zr20    Zr   0.13266   0.99712   0.82454   1.000
    Zr21    Zr   0.63470   0.99757   0.82459   1.000
    Zr22    Zr   0.03218   0.05407   0.10855   1.000
    Zr23    Zr   0.53222   0.05377   0.10800   1.000
    Zr24    Zr   0.42671   0.50790   0.22974   1.000
    Zr25    Zr   0.92469   0.50786   0.22960   1.000
    Zr26    Zr   0.29279   0.50013   0.16550   1.000
    Zr27    Zr   0.79088   0.50010   0.16539   1.000
    Zr28    Zr   0.33766   0.51560   0.87451   1.000
    Zr29    Zr   0.83633   0.51626   0.87460   1.000
    Zr30    Zr   0.28896   0.37067   0.86671   1.000
    Zr31    Zr   0.79085   0.37056   0.86695   1.000
    Zr32    Zr   0.32013   0.49219   0.73057   1.000
    Zr33    Zr   0.82647   0.49210   0.73078   1.000
    Zr34    Zr   0.45412   0.50003   0.66674   1.000
    Zr35    Zr   0.96025   0.49995   0.66667   1.000
    Zr36    Zr   0.41381   0.48439   0.37460   1.000
    Zr37    Zr   0.91212   0.48408   0.37416   1.000
    Zr38    Zr   0.46179   0.62970   0.36779   1.000
    Zr39    Zr   0.96012   0.62908   0.36555   1.000
    Zr40    Zr   0.07536   0.00000   0.26896   1.000
    Zr41    Zr   0.57325   0.00000   0.26910   1.000
    Zr42    Zr   0.20936   0.00000   0.33320   1.000
    Zr43    Zr   0.70727   0.00000   0.33322   1.000
    Zr44    Zr   0.16404   0.01636   0.62660   1.000
    Zr45    Zr   0.66616   0.01629   0.62668   1.000
    Zr46    Zr   0.20894   0.87024   0.63206   1.000
    Zr47    Zr   0.71091   0.87011   0.63215   1.000
    Zr48    Zr   0.17356   0.99203   0.77050   1.000
    Zr49    Zr   0.67576   0.99216   0.77060   1.000
    Zr50    Zr   0.03963   0.99979   0.83450   1.000
    Zr51    Zr   0.54162   0.99990   0.83447   1.000
    Zr52    Zr   0.08839   0.98507   0.12363   1.000
    Zr53    Zr   0.58613   0.98422   0.12480   1.000
    Zr54    Zr   0.03583   0.12831   0.13535   1.000
    Zr55    Zr   0.53793   0.12914   0.13316   1.000
    O56     O    0.55917   0.01899   0.11640   1.000
    O57     O    0.53507   0.09145   0.12058   1.000
    O58     O    0.06029   0.01957   0.11609   1.000
    O59     O    0.03401   0.09119   0.12195   1.000
    O60     O    0.12847   0.00012   0.16055   1.000
    O61     O    0.62662   0.99990   0.16132   1.000
    O62     O    0.83740   0.50143   0.17045   1.000
    O63     O    0.33931   0.50140   0.17058   1.000
    O64     O    0.90430   0.50531   0.20255   1.000
    O65     O    0.40627   0.50528   0.20270   1.000
    O66     O    0.12195   0.00758   0.23322   1.000
    O67     O    0.62019   0.00779   0.23347   1.000
    O68     O    0.87792   0.51165   0.26532   1.000
    O69     O    0.37994   0.51170   0.26547   1.000
    O70     O    0.09584   0.00000   0.29603   1.000
    O71     O    0.59374   0.00000   0.29618   1.000
    O72     O    0.87163   0.49977   0.33760   1.000
    O73     O    0.37349   0.49994   0.33790   1.000
    O74     O    0.16284   0.00000   0.32815   1.000
    O75     O    0.66075   0.00000   0.32824   1.000
    O76     O    0.96299   0.59143   0.37823   1.000
    O77     O    0.46455   0.59174   0.38002   1.000
    O78     O    0.93899   0.51893   0.38253   1.000
    O79     O    0.44056   0.51908   0.38343   1.000
    O80     O    0.19021   0.98152   0.61756   1.000
    O81     O    0.21266   0.90846   0.62029   1.000
    O82     O    0.69229   0.98140   0.61763   1.000
    O83     O    0.71466   0.90832   0.62036   1.000
    O84     O    0.12229   0.00047   0.66265   1.000
    O85     O    0.62448   0.00041   0.66272   1.000
    O86     O    0.91375   0.49855   0.67169   1.000
    O87     O    0.40756   0.49880   0.67163   1.000
    O88     O    0.34056   0.49489   0.70355   1.000
    O89     O    0.84685   0.49463   0.70375   1.000
    O90     O    0.12705   0.98830   0.73460   1.000
    O91     O    0.62928   0.98835   0.73468   1.000
    O92     O    0.36863   0.48840   0.76551   1.000
    O93     O    0.87310   0.48835   0.76665   1.000
    O94     O    0.15311   0.99457   0.79752   1.000
    O95     O    0.65523   0.99487   0.79760   1.000
    O96     O    0.37739   0.50010   0.83748   1.000
    O97     O    0.87804   0.50043   0.83856   1.000
    O98     O    0.08615   0.99846   0.82952   1.000
    O99     O    0.58816   0.99873   0.82953   1.000
    O100    O    0.28627   0.40847   0.87915   1.000
    O101    O    0.78711   0.40838   0.87925   1.000
    O102    O    0.31062   0.48093   0.88305   1.000
    O103    O    0.80985   0.48123   0.88307   1.000
    N104    N    0.06532   0.43739   0.02725   1.000
    O105    O    0.99374   0.46964   0.08828   1.000
    O106    O    0.15627   0.44618   0.97254   1.000
    N107    N    0.00582   0.76591   0.24005   1.000
    O108    O    0.14717   0.66834   0.26961   1.000
    O109    O    0.86102   0.86368   0.21769   1.000
    N110    N    0.68526   0.56194   0.52812   1.000
    O111    O    0.75710   0.52995   0.58931   1.000
    O112    O    0.59436   0.55340   0.47337   1.000
    N113    N    0.18202   0.56375   0.52727   1.000
    O114    O    0.25250   0.53128   0.58874   1.000
    O115    O    0.09208   0.55461   0.47227   1.000
    N116    N    0.56565   0.43665   0.02699   1.000
    O117    O    0.49481   0.46912   0.08820   1.000
    O118    O    0.65607   0.44560   0.97227   1.000
    N119    N    0.93572   0.93648   0.47236   1.000
    O120    O    0.84534   0.94599   0.52740   1.000
    O121    O    0.00693   0.96820   0.41084   1.000
    N122    N    0.49352   0.26602   0.25876   1.000
    O123    O    0.63794   0.36360   0.28121   1.000
    O124    O    0.35302   0.16838   0.22911   1.000
    N125    N    0.74435   0.23493   0.74007   1.000
    O126    O    0.88819   0.13690   0.71797   1.000
    O127    O    0.60302   0.33216   0.76931   1.000
    N128    N    0.99419   0.26601   0.25930   1.000
    O129    O    0.85299   0.16846   0.22958   1.000
    O130    O    0.13910   0.36369   0.28158   1.000
    N131    N    0.24420   0.23351   0.74096   1.000
    O132    O    0.38898   0.13602   0.71850   1.000
    O133    O    0.10415   0.33138   0.77082   1.000
    N134    N    0.50559   0.76575   0.23990   1.000
    O135    O    0.36148   0.86336   0.21733   1.000
    O136    O    0.64625   0.66831   0.26955   1.000
    N137    N    0.31428   0.06326   0.97258   1.000
    O138    O    0.24256   0.03063   0.91169   1.000
    O139    O    0.40506   0.05428   0.02714   1.000
    N140    N    0.43421   0.93744   0.47262   1.000
    O141    O    0.34356   0.94659   0.52751   1.000
    O142    O    0.50515   0.96872   0.41105   1.000
    N143    N    0.75545   0.73372   0.75959   1.000
    O144    O    0.61070   0.63626   0.78140   1.000
    O145    O    0.89594   0.83140   0.73005   1.000
    N146    N    0.81521   0.06512   0.97276   1.000
    O147    O    0.74396   0.03198   0.91184   1.000
    O148    O    0.90548   0.05556   0.02749   1.000
    N149    N    0.25598   0.73484   0.75983   1.000
    O150    O    0.39718   0.83200   0.73021   1.000
    O151    O    0.11211   0.63694   0.78247   1.000
loop_
    _geom_bond_atom_site_label_1
    _geom_bond_atom_site_label_2
    _geom_bond_distance
    _geom_bond_site_symmetry_2
    _ccdc_geom_bond_type
    Zr23   O56       0.65322      .   S
    Zr53   O56       0.65322  1_565   S
    Zr23   O57       0.62469      .   S
    Zr55   O57       0.62469      .   S
    Zr22   O58       0.65337      .   S
    Zr52   O58       0.65337  1_565   S
    Zr22   O59       0.62490      .   S
    Zr54   O59       0.62490      .   S
    Zr52   O60       0.99319  1_565   S
    Zr6    O60       0.99319      .   S
    Zr53   O61       0.99120      .   S
    Zr7    O61       0.99120  1_545   S
    Zr27   O62       0.62490      .   S
    Zr9    O62       0.62490      .   S
    Zr26   O63       0.62500      .   S
    Zr8    O63       0.62500      .   S
    Zr9    O64       0.65282      .   S
    Zr25   O64       0.65282      .   S
    Zr8    O65       0.65308      .   S
    Zr24   O65       0.65308      .   S
    Zr6    O66       1.00364      .   S
    Zr40   O66       1.00364      .   S
    Zr7    O67       1.00480      .   S
    Zr41   O67       1.00480      .   S
    Zr25   O68       1.00019      .   S
    Zr3    O68       1.00019      .   S
    Zr24   O69       1.00034      .   S
    Zr2    O69       1.00034      .   S
    Zr40   O70       0.65246      .   S
    Zr16   O70       0.65246      .   S
    Zr41   O71       0.65272      .   S
    Zr17   O71       0.65272      .   S
    Zr3    O72       0.99150      .   S
    Zr37   O72       0.99150      .   S
    Zr2    O73       0.99232      .   S
    Zr36   O73       0.99232      .   S
    Zr16   O74       0.62477      .   S
    Zr42   O74       0.62477      .   S
    Zr17   O75       0.62446      .   S
    Zr43   O75       0.62446      .   S
    Zr39   O76       0.62466      .   S
    Zr15   O76       0.62466      .   S
    Zr38   O77       0.62442      .   S
    Zr14   O77       0.62442      .   S
    Zr37   O78       0.65332      .   S
    Zr15   O78       0.65332      .   S
    Zr36   O79       0.65364      .   S
    Zr14   O79       0.65364      .   S
    Zr18   O80       0.65300      .   S
    Zr44   O80       0.65300  1_545   S
    Zr18   O81       0.62447      .   S
    Zr46   O81       0.62447      .   S
    Zr19   O82       0.65331      .   S
    Zr45   O82       0.65331  1_545   S
    Zr19   O83       0.62447      .   S
    Zr47   O83       0.62447      .   S
    Zr44   O84       0.99272      .   S
    Zr4    O84       0.99272  1_565   S
    Zr45   O85       0.99199      .   S
    Zr5    O85       0.99199  1_565   S
    Zr35   O86       0.62482      .   S
    Zr13   O86       0.62482      .   S
    Zr34   O87       0.62500      .   S
    Zr12   O87       0.62500      .   S
    Zr12   O88       0.65290      .   S
    Zr32   O88       0.65290      .   S
    Zr13   O89       0.65272      .   S
    Zr33   O89       0.65272      .   S
    Zr4    O90       1.00055      .   S
    Zr48   O90       1.00055      .   S
    Zr5    O91       1.00073      .   S
    Zr49   O91       1.00073      .   S
    Zr32   O92       1.00054      .   S
    Zr0    O92       1.00054      .   S
    Zr33   O93       1.00083      .   S
    Zr1    O93       1.00083      .   S
    Zr48   O94       0.65288      .   S
    Zr20   O94       0.65288      .   S
    Zr49   O95       0.65297      .   S
    Zr21   O95       0.65297      .   S
    Zr0    O96       0.99497      .   S
    Zr28   O96       0.99497      .   S
    Zr1    O97       0.99281      .   S
    Zr29   O97       0.99281      .   S
    Zr20   O98       0.62486      .   S
    Zr50   O98       0.62486      .   S
    Zr21   O99       0.62490      .   S
    Zr51   O99       0.62490      .   S
    Zr30   O100      0.62472      .   S
    Zr10   O100      0.62472      .   S
    Zr31   O101      0.62475      .   S
    Zr11   O101      0.62475      .   S
    Zr28   O102      0.65323      .   S
    Zr10   O102      0.65323      .   S
    Zr29   O103      0.65302      .   S
    Zr11   O103      0.65302      .   S
    N104   O105      1.70898  1_455   S
    Zr9    O105      2.45315      .   S
    N104   O106      1.70427  1_554   S
    Zr10   O106      2.44768      .   S
    N107   O108      2.45021      .   S
    Zr2    O108      3.41486      .   S
    N107   O109      2.45061  1_455   S
    Zr7    O109      3.44000  1_545   S
    N110   O111      1.71068      .   S
    Zr13   O111      2.45523      .   S
    N110   O112      1.70322      .   S
    Zr14   O112      2.44620      .   S
    N113   O114      1.70760      .   S
    Zr12   O114      2.45169      .   S
    N113   O115      1.69886      .   S
    Zr15   O115      2.44267  1_655   S
    N116   O117      1.70781      .   S
    Zr8    O117      2.45172      .   S
    N116   O118      1.69955  1_554   S
    Zr11   O118      2.44379      .   S
    N119   O120      1.70521      .   S
    Zr19   O120      2.44752      .   S
    N119   O121      1.71131  1_655   S
    Zr16   O121      2.45368  1_545   S
    N122   O123      2.44491      .   S
    Zr3    O123      3.43149      .   S
    N122   O124      2.44257      .   S
    Zr6    O124      3.40362      .   S
    N125   O126      2.44303      .   S
    Zr4    O126      3.42851  1_465   S
    N125   O127      2.44676      .   S
    Zr0    O127      3.40974      .   S
    N128   O129      2.44935      .   S
    Zr7    O129      3.41396      .   S
    N128   O130      2.45002  1_655   S
    Zr2    O130      3.43906      .   S
    N131   O132      2.44963      .   S
    Zr5    O132      3.43615  1_565   S
    N131   O133      2.44316      .   S
    Zr1    O133      3.40565  1_655   S
    N134   O135      2.44310      .   S
    Zr6    O135      3.42959  1_545   S
    N134   O136      2.44255      .   S
    Zr3    O136      3.40408      .   S
    N137   O138      1.70802      .   S
    Zr20   O138      2.45183  1_565   S
    N137   O139      1.69952  1_556   S
    Zr23   O139      2.44307      .   S
    N140   O141      1.70492      .   S
    Zr18   O141      2.44735      .   S
    N140   O142      1.70853      .   S
    Zr17   O142      2.45056  1_545   S
    N143   O144      2.44420      .   S
    Zr0    O144      3.43086      .   S
    N143   O145      2.44178      .   S
    Zr4    O145      3.40260  1_455   S
    N146   O147      1.70722      .   S
    Zr21   O147      2.45137  1_565   S
    N146   O148      1.69822  1_556   S
    Zr22   O148      2.44215  1_455   S
    N149   O150      2.44491      .   S
    Zr5    O150      3.40635      .   S
    N149   O151      2.44258      .   S
    Zr1    O151      3.42832  1_655   S
