# CIF file generated by openbabel 2.4.90, see http://openbabel.sf.net
data_I
_chemical_name_common ''
_cell_length_a 13.217
_cell_length_b 14.829
_cell_length_c 21.942
_cell_angle_alpha 89.925
_cell_angle_beta 90.037
_cell_angle_gamma 90.032
_space_group_name_H-M_alt 'P 1'
_space_group_name_Hall 'P 1'
loop_
    _symmetry_equiv_pos_as_xyz
    x,y,z
loop_
    _atom_site_label
    _atom_site_type_symbol
    _atom_site_fract_x
    _atom_site_fract_y
    _atom_site_fract_z
    _atom_site_occupancy
    N0      N    0.06532   0.43739   0.02725   1.000
    N1      N    0.00582   0.76591   0.24005   1.000
    N2      N    0.68526   0.56194   0.52812   1.000
    N3      N    0.18202   0.56375   0.52727   1.000
    N4      N    0.56565   0.43665   0.02699   1.000
    N5      N    0.93572   0.93648   0.47236   1.000
    N6      N    0.49352   0.26602   0.25876   1.000
    N7      N    0.74435   0.23493   0.74007   1.000
    N8      N    0.99419   0.26601   0.25930   1.000
    N9      N    0.24420   0.23351   0.74096   1.000
    N10     N    0.50559   0.76575   0.23990   1.000
    N11     N    0.31428   0.06326   0.97258   1.000
    N12     N    0.43421   0.93744   0.47262   1.000
    N13     N    0.75545   0.73372   0.75959   1.000
    N14     N    0.81521   0.06512   0.97276   1.000
    N15     N    0.25598   0.73484   0.75983   1.000
    Zr16    Zr   0.60259   0.02610   0.21277   1.000
    O17     O    0.55387   0.99741   0.31191   1.000
    O18     O    0.73181   0.94489   0.21523   1.000
    O19     O    0.72779   0.09728   0.22117   1.000
    O20     O    0.50383   0.04019   0.11995   1.000
    Zr21    Zr   0.64719   0.97244   0.71369   1.000
    O22     O    0.69558   0.00221   0.81276   1.000
    O23     O    0.74627   0.95921   0.62054   1.000
    O24     O    0.52219   0.90222   0.72195   1.000
    O25     O    0.51808   0.05423   0.71609   1.000
    Zr26    Zr   0.39734   0.52772   0.28668   1.000
    O27     O    0.44608   0.49842   0.18744   1.000
    O28     O    0.49585   0.54056   0.38003   1.000
    O29     O    0.27226   0.59803   0.27814   1.000
    O30     O    0.26822   0.44570   0.28413   1.000
    Zr31    Zr   0.14511   0.97240   0.71363   1.000
    O32     O    0.24434   0.95949   0.62057   1.000
    O33     O    0.01665   0.05465   0.71580   1.000
    O34     O    0.02052   0.90190   0.72184   1.000
    O35     O    0.19383   0.00152   0.81266   1.000
    Zr36    Zr   0.89553   0.52759   0.28602   1.000
    O37     O    0.99381   0.54110   0.37914   1.000
    O38     O    0.77089   0.59795   0.27778   1.000
    O39     O    0.76674   0.44559   0.28362   1.000
    O40     O    0.94464   0.49861   0.18715   1.000
    Zr41    Zr   0.10371   0.02609   0.21289   1.000
    O42     O    0.05532   0.99714   0.31187   1.000
    O43     O    0.22837   0.09723   0.22100   1.000
    O44     O    0.23259   0.94473   0.21511   1.000
    O45     O    0.00460   0.04082   0.12019   1.000
    Zr46    Zr   0.85489   0.47240   0.78711   1.000
    O47     O    0.75548   0.45900   0.87969   1.000
    O48     O    0.80600   0.50118   0.68821   1.000
    O49     O    0.97952   0.40189   0.77896   1.000
    O50     O    0.98350   0.55467   0.78479   1.000
    Zr51    Zr   0.35180   0.47242   0.78673   1.000
    O52     O    0.47741   0.40229   0.77802   1.000
    O53     O    0.48125   0.55434   0.78406   1.000
    O54     O    0.30215   0.50185   0.68773   1.000
    O55     O    0.25404   0.45930   0.87963   1.000
loop_
    _geom_bond_atom_site_label_1
    _geom_bond_atom_site_label_2
    _geom_bond_distance
    _geom_bond_site_symmetry_2
    _ccdc_geom_bond_type
    Zr16   O17       2.30798  1_545   S
    N12    O17       3.96544      .   S
    Zr16   O18       2.09088  1_545   S
    N1     O18       4.52343  1_455   S
    Zr16   O19       1.97090      .   S
    N8     O19       4.39893      .   S
    Zr16   O20       2.42710      .   S
    N11    O20       4.10332  1_556   S
    Zr21   O22       2.30874  1_565   S
    N14    O22       3.96167      .   S
    Zr21   O23       2.43615      .   S
    N5     O23       4.11943      .   S
    Zr21   O24       1.96087      .   S
    N15    O24       4.38411      .   S
    Zr21   O25       2.09483  1_565   S
    N9     O25       4.52624      .   S
    Zr26   O27       2.31290      .   S
    N4     O27       3.96852      .   S
    Zr26   O28       2.43393      .   S
    N2     O28       4.11318      .   S
    Zr26   O29       1.96377      .   S
    N1     O29       4.39293      .   S
    Zr26   O30       2.09584      .   S
    N8     O30       4.52827  1_655   S
    Zr31   O32       2.43537      .   S
    N12    O32       4.11798      .   S
    Zr31   O33       2.09171  1_565   S
    N7     O33       4.51658  1_655   S
    Zr31   O34       1.95824      .   S
    N13    O34       4.37822  1_655   S
    Zr31   O35       2.30718  1_565   S
    N11    O35       3.96045      .   S
    Zr36   O37       2.42895      .   S
    N3     O37       4.10556  1_455   S
    Zr36   O38       1.95865      .   S
    N10    O38       4.37931      .   S
    Zr36   O39       2.09205      .   S
    N6     O39       4.51872      .   S
    Zr36   O40       2.30579      .   S
    N0     O40       3.96170  1_455   S
    Zr41   O42       2.30406  1_545   S
    N5     O42       3.96316  1_655   S
    Zr41   O43       1.96400      .   S
    N6     O43       4.38462      .   S
    Zr41   O44       2.08848  1_545   S
    N10    O44       4.51259      .   S
    Zr41   O45       2.42833      .   S
    N14    O45       4.10465  1_656   S
    Zr46   O47       2.42786      .   S
    N4     O47       4.10577  1_554   S
    Zr46   O48       2.30324      .   S
    N2     O48       3.96022      .   S
    Zr46   O49       1.95992      .   S
    N9     O49       4.38027  1_455   S
    Zr46   O50       2.09234      .   S
    N15    O50       4.51609  1_455   S
    Zr51   O52       1.96908      .   S
    N7     O52       4.39540      .   S
    Zr51   O53       2.09862      .   S
    N13    O53       4.52618      .   S
    Zr51   O54       2.30982      .   S
    N3     O54       3.96814      .   S
    Zr51   O55       2.42185      .   S
    N0     O55       4.10184  1_554   S
