# CIF file generated by openbabel 2.4.90, see http://openbabel.sf.net
data_I
_chemical_name_common ''
_cell_length_a 7.777
_cell_length_b 10.178
_cell_length_c 13.43
_cell_angle_alpha 68.03
_cell_angle_beta 85.139
_cell_angle_gamma 75.683
_space_group_name_H-M_alt 'P 1'
_space_group_name_Hall 'P 1'
loop_
    _symmetry_equiv_pos_as_xyz
    x,y,z
loop_
    _atom_site_label
    _atom_site_type_symbol
    _atom_site_fract_x
    _atom_site_fract_y
    _atom_site_fract_z
    _atom_site_occupancy
    Zr0     Zr   0.14183   0.33939   0.45272   1.000
    Zr1     Zr   0.85814   0.66063   0.54728   1.000
    Zr2     Zr   0.49999   0.00001   0.50000   1.000
    N3      N    0.22869   0.97880   0.09304   1.000
    O4      O    0.11167   0.80534   0.30408   1.000
    N5      N    0.77129   0.02123   0.90696   1.000
    O6      O    0.88830   0.19468   0.69591   1.000
    O7      O    0.80063   0.85326   0.73459   1.000
    O8      O    0.68219   0.99862   0.69064   1.000
    O9      O    0.31780   0.00140   0.30936   1.000
    O10     O    0.19935   0.14676   0.26541   1.000
loop_
    _geom_bond_atom_site_label_1
    _geom_bond_atom_site_label_2
    _geom_bond_distance
    _geom_bond_site_symmetry_2
    _ccdc_geom_bond_type
    N3     O4        2.93115      .   S
    Zr1    O4        3.67020  1_655   S
    N5     O6        2.93113      .   S
    Zr0    O6        3.67016  1_455   S
    N5     O7        3.31846  1_545   S
    Zr1    O7        3.66575      .   S
    N5     O8        3.14533  1_545   S
    Zr2    O8        3.02343  1_545   S
    Zr2    O9        3.02337      .   S
    N3     O9        3.14533  1_565   S
    N3     O10       3.31846  1_565   S
    Zr0    O10       3.66575      .   S
