# CIF file generated by openbabel 2.4.90, see http://openbabel.sf.net
data_I
_chemical_name_common ''
_cell_length_a 7.777
_cell_length_b 10.178
_cell_length_c 13.43
_cell_angle_alpha 68.03
_cell_angle_beta 85.139
_cell_angle_gamma 75.683
_space_group_name_H-M_alt 'P 1'
_space_group_name_Hall 'P 1'
loop_
    _symmetry_equiv_pos_as_xyz
    x,y,z
loop_
    _atom_site_label
    _atom_site_type_symbol
    _atom_site_fract_x
    _atom_site_fract_y
    _atom_site_fract_z
    _atom_site_occupancy
    Zr0     Zr   0.14183   0.33939   0.45272   1.000
    Zr1     Zr   0.85814   0.66063   0.54728   1.000
    Zr2     Zr   0.49999   0.00001   0.50000   1.000
    N3      N    0.22869   0.97880   0.09304   1.000
    O4      O    0.11167   0.80534   0.30408   1.000
    O5      O    0.17188   0.14514   0.23268   1.000
    O6      O    0.20366   0.20951   0.24466   1.000
    O7      O    0.34440   0.98658   0.33640   1.000
    O8      O    0.22021   0.13131   0.31381   1.000
    O9      O    0.29120   0.01623   0.28231   1.000
    O10     O    0.20166   0.10108   0.27049   1.000
    N11     N    0.77129   0.02123   0.90696   1.000
    O12     O    0.77976   0.86872   0.68619   1.000
    O13     O    0.70879   0.98379   0.71769   1.000
    O14     O    0.79832   0.89894   0.72951   1.000
    O15     O    0.88830   0.19468   0.69591   1.000
    O16     O    0.82810   0.85488   0.76732   1.000
    O17     O    0.65559   0.01345   0.66359   1.000
    O18     O    0.79632   0.79051   0.75533   1.000
loop_
    _geom_bond_atom_site_label_1
    _geom_bond_atom_site_label_2
    _geom_bond_distance
    _geom_bond_site_symmetry_2
    _ccdc_geom_bond_type
    N3     O4        2.93115      .   S
    Zr1    O4        3.67020  1_655   S
    N3     O5        2.90583  1_565   S
    Zr0    O5        4.08928      .   S
    N3     O6        3.60319  1_565   S
    Zr0    O6        3.46521      .   S
    N3     O7        3.49648      .   S
    Zr2    O7        2.65845  1_545   S
    N3     O8        3.81640  1_565   S
    Zr0    O8        3.23448      .   S
    N3     O9        2.80508  1_565   S
    Zr2    O9        3.39437      .   S
    N3     O10       3.04591  1_565   S
    Zr0    O10       3.97236      .   S
    N11    O12       3.81636  1_545   S
    Zr1    O12       3.23454      .   S
    N11    O13       2.80509  1_545   S
    Zr2    O13       3.39442  1_545   S
    N11    O14       3.04592  1_545   S
    Zr1    O14       3.97235      .   S
    N11    O15       2.93113      .   S
    Zr0    O15       3.67016  1_455   S
    N11    O16       2.90582  1_545   S
    Zr1    O16       4.08931      .   S
    N11    O17       3.49646      .   S
    Zr2    O17       2.65853      .   S
    N11    O18       3.60324  1_545   S
    Zr1    O18       3.46516      .   S
