# CIF file generated by openbabel 2.4.90, see http://openbabel.sf.net
data_I
_chemical_name_common ''
_cell_length_a 13.219
_cell_length_b 14.33
_cell_length_c 14.337
_cell_angle_alpha 77.767
_cell_angle_beta 62.589
_cell_angle_gamma 62.647
_space_group_name_H-M_alt 'P 1'
_space_group_name_Hall 'P 1'
loop_
    _symmetry_equiv_pos_as_xyz
    x,y,z
loop_
    _atom_site_label
    _atom_site_type_symbol
    _atom_site_fract_x
    _atom_site_fract_y
    _atom_site_fract_z
    _atom_site_occupancy
    Cu0     Cu   0.85701   0.25001   0.78555   1.000
    Cu1     Cu   0.60697   0.28551   0.75000   1.000
    Cu2     Cu   0.14297   0.21461   0.74996   1.000
    Cu3     Cu   0.60708   0.75019   0.28530   1.000
    Cu4     Cu   0.14295   0.75003   0.21445   1.000
    Cu5     Cu   0.39306   0.71449   0.24987   1.000
    Cu6     Cu   0.85697   0.78541   0.25010   1.000
    Cu7     Cu   0.39293   0.24978   0.71464   1.000
    I8      I    0.49986   0.15197   0.84807   1.000
    I9      I    0.00007   0.34761   0.65243   1.000
    I10     I    0.84725   0.15232   0.65234   1.000
    I11     I    0.15257   0.34779   0.84783   1.000
    I12     I    0.50010   0.84803   0.15196   1.000
    I13     I    0.99991   0.65240   0.34760   1.000
    I14     I    0.15272   0.84769   0.34766   1.000
    I15     I    0.84738   0.65222   0.15219   1.000
loop_
    _geom_bond_atom_site_label_1
    _geom_bond_atom_site_label_2
    _geom_bond_distance
    _geom_bond_site_symmetry_2
    _ccdc_geom_bond_type
    I12    Cu3       2.67420      .   S
    I15    Cu6       2.67403      .   S
    Cu4    I14       2.67362      .   S
    Cu6    I13       2.67404      .   S
    I10    Cu0       2.67402      .   S
    I9     Cu2       2.67400      .   S
    Cu7    I8        2.67483      .   S
    Cu2    I11       2.67367      .   S
