# CIF file generated by openbabel 2.4.90, see http://openbabel.sf.net
data_I
_chemical_name_common ''
_cell_length_a 13.219
_cell_length_b 14.33
_cell_length_c 14.337
_cell_angle_alpha 77.767
_cell_angle_beta 62.589
_cell_angle_gamma 62.647
_space_group_name_H-M_alt 'P 1'
_space_group_name_Hall 'P 1'
loop_
    _symmetry_equiv_pos_as_xyz
    x,y,z
loop_
    _atom_site_label
    _atom_site_type_symbol
    _atom_site_fract_x
    _atom_site_fract_y
    _atom_site_fract_z
    _atom_site_occupancy
    N0      N    0.50001   0.49999   0.49997   1.000
    N1      N    0.99998   0.99999   1.00000   1.000
    N2      N    0.49999   0.50001   1.00000   1.000
    N3      N    0.49998   0.99999   0.50002   1.000
    Zr4     Zr   0.85213   0.20116   0.71894   1.000
    O5      O    0.90087   0.14938   0.81679   1.000
    O6      O    0.74386   0.30178   0.81681   1.000
    Zr7     Zr   0.60697   0.28551   0.75000   1.000
    O8      O    0.57707   0.35006   0.82621   1.000
    O9      O    0.57250   0.35007   0.67378   1.000
    Zr10    Zr   0.09854   0.30334   0.75007   1.000
    O11     O    0.07446   0.19437   0.82623   1.000
    O12     O    0.23146   0.19435   0.67383   1.000
    Zr13    Zr   0.55359   0.79911   0.21863   1.000
    O14     O    0.55038   0.85079   0.31660   1.000
    O15     O    0.54583   0.69837   0.31659   1.000
    Zr16    Zr   0.14784   0.79886   0.28105   1.000
    O17     O    0.09910   0.85063   0.18321   1.000
    O18     O    0.25611   0.69824   0.18319   1.000
    Zr19    Zr   0.39306   0.71449   0.24987   1.000
    O20     O    0.42294   0.64994   0.17371   1.000
    O21     O    0.42752   0.64993   0.32611   1.000
    Zr22    Zr   0.90142   0.69668   0.24996   1.000
    O23     O    0.76850   0.80565   0.32621   1.000
    O24     O    0.92550   0.80563   0.17380   1.000
    Zr25    Zr   0.44640   0.20087   0.78135   1.000
    O26     O    0.44960   0.14919   0.68340   1.000
    O27     O    0.45416   0.30161   0.68338   1.000
loop_
    _geom_bond_atom_site_label_1
    _geom_bond_atom_site_label_2
    _geom_bond_distance
    _geom_bond_site_symmetry_2
    _ccdc_geom_bond_type
    Zr4    O5        1.69863      .   S
    N1     O5        3.37740  1_565   S
    Zr4    O6        1.79113      .   S
    N2     O6        3.50851      .   S
    Zr7    O8        1.37857      .   S
    N2     O8        3.12769      .   S
    Zr7    O9        1.37852      .   S
    N0     O9        3.12758      .   S
    Zr10   O11       1.77364      .   S
    N1     O11       3.50079  1_665   S
    Zr10   O12       1.77608      .   S
    N3     O12       3.50407  1_565   S
    Zr13   O14       1.69719      .   S
    N3     O14       3.37506      .   S
    Zr13   O15       1.79192      .   S
    N0     O15       3.50854      .   S
    Zr16   O17       1.69865      .   S
    N1     O17       3.37734  1_656   S
    Zr16   O18       1.79115      .   S
    N2     O18       3.50865  1_556   S
    Zr19   O20       1.37807      .   S
    N2     O20       3.12685  1_556   S
    Zr19   O21       1.37877      .   S
    N0     O21       3.12811      .   S
    Zr22   O23       1.77607      .   S
    N3     O23       3.50396      .   S
    Zr22   O24       1.77360      .   S
    N1     O24       3.50084  1_556   S
    Zr25   O26       1.69703      .   S
    N3     O26       3.37460  1_565   S
    Zr25   O27       1.79203      .   S
    N0     O27       3.50880      .   S
