# CIF file generated by openbabel 2.4.90, see http://openbabel.sf.net
data_I
_chemical_name_common ''
_cell_length_a 13.219
_cell_length_b 14.33
_cell_length_c 14.337
_cell_angle_alpha 77.767
_cell_angle_beta 62.589
_cell_angle_gamma 62.647
_space_group_name_H-M_alt 'P 1'
_space_group_name_Hall 'P 1'
loop_
    _symmetry_equiv_pos_as_xyz
    x,y,z
loop_
    _atom_site_label
    _atom_site_type_symbol
    _atom_site_fract_x
    _atom_site_fract_y
    _atom_site_fract_z
    _atom_site_occupancy
    C0      C    0.39293   0.24978   0.71464   1.000
    C1      C    0.85701   0.25001   0.78555   1.000
    C2      C    0.60697   0.28551   0.75000   1.000
    C3      C    0.14297   0.21461   0.74996   1.000
    C4      C    0.60708   0.75019   0.28530   1.000
    C5      C    0.14295   0.75003   0.21445   1.000
    C6      C    0.39306   0.71449   0.24987   1.000
    C7      C    0.85697   0.78541   0.25010   1.000
    C8      C    0.36302   0.33439   0.48799   1.000
    C9      C    0.25492   0.37671   0.61785   1.000
    C10     C    0.68594   0.16538   0.01223   1.000
    C11     C    0.74956   0.12305   0.88239   1.000
    C12     C    0.35136   0.51193   0.83434   1.000
    C13     C    0.37274   0.38205   0.87675   1.000
    C14     C    0.19793   0.98767   0.66531   1.000
    C15     C    0.13217   0.11750   0.62287   1.000
    C16     C    0.31405   0.98800   0.83441   1.000
    C17     C    0.25049   0.11784   0.87670   1.000
    C18     C    0.63695   0.51217   0.66500   1.000
    C19     C    0.74502   0.38233   0.62301   1.000
    C20     C    0.80179   0.33476   0.01236   1.000
    C21     C    0.86778   0.37715   0.88249   1.000
    C22     C    0.64879   0.16566   0.48810   1.000
    C23     C    0.62723   0.12325   0.61798   1.000
    C24     C    0.63697   0.66558   0.51201   1.000
    C25     C    0.74508   0.62327   0.38215   1.000
    C26     C    0.31403   0.83462   0.98774   1.000
    C27     C    0.25043   0.87692   0.11760   1.000
    C28     C    0.64861   0.48810   0.16565   1.000
    C29     C    0.62725   0.61798   0.12320   1.000
    C30     C    0.80200   0.01235   0.33475   1.000
    C31     C    0.86779   0.88250   0.37715   1.000
    C32     C    0.68590   0.01202   0.16560   1.000
    C33     C    0.74946   0.88218   0.12329   1.000
    C34     C    0.36305   0.48780   0.33460   1.000
    C35     C    0.25500   0.61764   0.37698   1.000
    C36     C    0.19817   0.66526   0.98760   1.000
    C37     C    0.13220   0.62286   0.11751   1.000
    C38     C    0.35117   0.83432   0.51198   1.000
    C39     C    0.37273   0.87671   0.38209   1.000
    C40     C    0.17100   0.48335   0.48369   1.000
    C41     C    0.17428   0.56104   0.56132   1.000
    C42     C    0.63811   0.01632   0.01665   1.000
    C43     C    0.79629   0.93871   0.93890   1.000
    C44     C    0.15490   0.51610   0.98327   1.000
    C45     C    0.23549   0.43850   0.06104   1.000
    C46     C    0.15486   0.98320   0.51617   1.000
    C47     C    0.23558   0.06097   0.43853   1.000
    C48     C    0.36186   0.98368   0.98335   1.000
    C49     C    0.20367   0.06128   0.06107   1.000
    C50     C    0.82901   0.51663   0.51631   1.000
    C51     C    0.82575   0.43893   0.43867   1.000
    C52     C    0.84508   0.48392   0.01673   1.000
    C53     C    0.76450   0.56151   0.93895   1.000
    C54     C    0.84510   0.01677   0.48389   1.000
    C55     C    0.76439   0.93899   0.56151   1.000
    C56     C    0.41072   0.41720   0.55624   1.000
    C57     C    0.31427   0.40084   0.54257   1.000
    C58     C    0.88425   0.08269   0.94386   1.000
    C59     C    0.75785   0.09895   0.95764   1.000
    C60     C    0.46697   0.44373   0.91723   1.000
    C61     C    0.35695   0.45734   0.90084   1.000
    C62     C    0.32817   0.05606   0.58265   1.000
    C63     C    0.21553   0.04226   0.59883   1.000
    C64     C    0.11571   0.05627   0.91724   1.000
    C65     C    0.24213   0.04257   0.90087   1.000
    C66     C    0.58925   0.44385   0.58269   1.000
    C67     C    0.68571   0.45760   0.59890   1.000
    C68     C    0.67176   0.41740   0.94392   1.000
    C69     C    0.78435   0.40122   0.95772   1.000
    C70     C    0.53304   0.08274   0.55631   1.000
    C71     C    0.64308   0.09916   0.54269   1.000
    C72     C    0.58931   0.58276   0.44375   1.000
    C73     C    0.68574   0.59913   0.45743   1.000
    C74     C    0.11572   0.91731   0.05615   1.000
    C75     C    0.24212   0.90104   0.04230   1.000
    C76     C    0.53302   0.55629   0.08275   1.000
    C77     C    0.64304   0.54269   0.09915   1.000
    C78     C    0.67179   0.94393   0.41740   1.000
    C79     C    0.78443   0.95773   0.40121   1.000
    C80     C    0.88425   0.94374   0.08277   1.000
    C81     C    0.75783   0.95744   0.09914   1.000
    C82     C    0.41078   0.55612   0.41700   1.000
    C83     C    0.31430   0.54237   0.40100   1.000
    C84     C    0.32822   0.58263   0.05607   1.000
    C85     C    0.21563   0.59880   0.04228   1.000
    C86     C    0.46693   0.91723   0.44375   1.000
    C87     C    0.35687   0.90082   0.45738   1.000
    C88     C    0.45420   0.49338   0.49344   1.000
    C89     C    0.23444   0.49989   0.50015   1.000
    C90     C    0.94106   0.00652   0.00658   1.000
    C91     C    0.73447   0.99985   0.00010   1.000
    C92     C    0.44766   0.50653   0.99340   1.000
    C93     C    0.23470   0.49969   0.99985   1.000
    C94     C    0.44764   0.99339   0.50650   1.000
    C95     C    0.23468   0.99982   0.49973   1.000
    C96     C    0.05889   0.99350   0.99345   1.000
    C97     C    0.26549   0.00000   0.99991   1.000
    C98     C    0.54585   0.50656   0.50652   1.000
    C99     C    0.76558   0.50008   0.49984   1.000
    C100    C    0.55232   0.49351   0.00657   1.000
    C101    C    0.76528   0.50033   0.00014   1.000
    C102    C    0.55231   0.00657   0.49352   1.000
    C103    C    0.76528   0.00016   0.50032   1.000
    C104    C    0.49986   0.15197   0.84807   1.000
    C105    C    0.00007   0.34761   0.65243   1.000
    C106    C    0.84725   0.15232   0.65234   1.000
    C107    C    0.15257   0.34779   0.84783   1.000
    C108    C    0.50010   0.84803   0.15196   1.000
    C109    C    0.99991   0.65240   0.34760   1.000
    C110    C    0.15272   0.84769   0.34766   1.000
    C111    C    0.84738   0.65222   0.15219   1.000
    C112    C    0.45473   0.35961   0.62707   1.000
    C113    C    0.94144   0.14041   0.87301   1.000
    C114    C    0.58170   0.37293   0.85971   1.000
    C115    C    0.31458   0.12689   0.64037   1.000
    C116    C    0.05858   0.12703   0.85956   1.000
    C117    C    0.54514   0.37301   0.64030   1.000
    C118    C    0.68535   0.35960   0.87317   1.000
    C119    C    0.41828   0.14028   0.62709   1.000
    C120    C    0.54522   0.64041   0.37297   1.000
    C121    C    0.05853   0.85959   0.12698   1.000
    C122    C    0.41828   0.62706   0.14031   1.000
    C123    C    0.68537   0.87314   0.35964   1.000
    C124    C    0.94140   0.87295   0.14044   1.000
    C125    C    0.45484   0.62699   0.35963   1.000
    C126    C    0.31462   0.64039   0.12687   1.000
    C127    C    0.58168   0.85972   0.37294   1.000
    O128    O    0.68629   0.00808   0.00837   1.000
    O129    O    0.74615   0.97864   0.04962   1.000
    O130    O    0.76538   0.96928   0.96950   1.000
    O131    O    0.74616   0.04940   0.97887   1.000
    O132    O    0.80518   0.49212   0.00843   1.000
    O133    O    0.70416   0.52151   0.04964   1.000
    O134    O    0.76489   0.53092   0.96954   1.000
    O135    O    0.77482   0.45077   0.97893   1.000
    O136    O    0.54267   0.52490   0.04466   1.000
    O137    O    0.61204   0.45545   0.97524   1.000
    O138    O    0.49999   0.50002   0.99998   1.000
    O139    O    0.91265   0.97513   0.04467   1.000
    O140    O    0.91266   0.04461   0.97522   1.000
    O141    O    0.99997   0.00001   0.00001   1.000
    O142    O    0.72190   0.13216   0.98493   1.000
    O143    O    0.79307   0.36799   0.98504   1.000
    O144    O    0.27193   0.59072   0.04917   1.000
    O145    O    0.17392   0.61083   0.07989   1.000
    O146    O    0.20690   0.63203   0.01494   1.000
    O147    O    0.22517   0.54924   0.02106   1.000
    O148    O    0.17892   0.90918   0.04922   1.000
    O149    O    0.24628   0.88898   0.07995   1.000
    O150    O    0.27807   0.86783   0.01502   1.000
    O151    O    0.25381   0.95052   0.02110   1.000
    O152    O    0.32142   0.61151   0.09147   1.000
    O153    O    0.38794   0.54458   0.02473   1.000
    O154    O    0.08712   0.88845   0.09156   1.000
    O155    O    0.08730   0.95541   0.02480   1.000
    O156    O    0.23510   0.46909   0.03044   1.000
    O157    O    0.23458   0.03064   0.03049   1.000
    O158    O    0.58803   0.54949   0.09095   1.000
    O159    O    0.47565   0.59168   0.11153   1.000
    O160    O    0.82104   0.95059   0.09095   1.000
    O161    O    0.91282   0.90834   0.11160   1.000
    O162    O    0.75365   0.91981   0.11121   1.000
    O163    O    0.72187   0.98473   0.13237   1.000
    O164    O    0.63514   0.58033   0.11117   1.000
    O165    O    0.64582   0.51539   0.13240   1.000
    O166    O    0.36645   0.63372   0.13359   1.000
    O167    O    0.22879   0.69521   0.17066   1.000
    O168    O    0.99997   0.86627   0.13371   1.000
    O169    O    0.10074   0.80481   0.17071   1.000
    O170    O    0.40567   0.67077   0.19509   1.000
    O171    O    0.89919   0.82918   0.19527   1.000
    O172    O    0.55359   0.79911   0.21863   1.000
    O173    O    0.85218   0.71881   0.20114   1.000
    O174    O    0.14784   0.79886   0.28105   1.000
    O175    O    0.42395   0.67074   0.30475   1.000
    O176    O    0.92844   0.71890   0.29885   1.000
    O177    O    0.77117   0.82927   0.30487   1.000
    O178    O    0.59438   0.80495   0.32912   1.000
    O179    O    0.57615   0.69530   0.32913   1.000
    O180    O    0.33868   0.51509   0.36780   1.000
    O181    O    0.79321   0.98504   0.36798   1.000
    O182    O    0.50003   0.63370   0.36630   1.000
    O183    O    0.43281   0.59155   0.38831   1.000
    O184    O    0.63352   0.86643   0.36629   1.000
    O185    O    0.67858   0.90854   0.38852   1.000
    O186    O    0.52430   0.88848   0.40834   1.000
    O187    O    0.56726   0.61158   0.40836   1.000
    O188    O    0.28465   0.58001   0.38899   1.000
    O189    O    0.82611   0.92012   0.38918   1.000
    O190    O    0.36480   0.88876   0.41973   1.000
    O191    O    0.71541   0.61120   0.41979   1.000
    O192    O    0.36254   0.54924   0.40900   1.000
    O193    O    0.27437   0.52113   0.45057   1.000
    O194    O    0.72811   0.95083   0.40930   1.000
    O195    O    0.77485   0.97895   0.45076   1.000
    O196    O    0.43249   0.52475   0.45522   1.000
    O197    O    0.61205   0.97525   0.45546   1.000
    O198    O    0.23513   0.03039   0.46913   1.000
    O199    O    0.79566   0.46951   0.46925   1.000
    O200    O    0.41190   0.90903   0.45056   1.000
    O201    O    0.45729   0.95531   0.47512   1.000
    O202    O    0.63752   0.59094   0.45059   1.000
    O203    O    0.56758   0.54466   0.47513   1.000
    O204    O    0.29578   0.95032   0.47855   1.000
    O205    O    0.35402   0.86757   0.48468   1.000
    O206    O    0.72566   0.54960   0.47863   1.000
    O207    O    0.66136   0.63235   0.48472   1.000
    O208    O    0.20272   0.49162   0.49192   1.000
    O209    O    0.80519   0.00847   0.49210   1.000
    O210    O    0.33865   0.36762   0.51528   1.000
    O211    O    0.64594   0.13241   0.51539   1.000
    O212    O    0.50002   0.49997   0.49998   1.000
    O213    O    0.43246   0.45529   0.52484   1.000
    O214    O    0.49998   0.99998   0.50001   1.000
    O215    O    0.54268   0.04465   0.52491   1.000
    O216    O    0.19477   0.99151   0.50795   1.000
    O217    O    0.22511   0.02104   0.54928   1.000
    O218    O    0.79729   0.50835   0.50808   1.000
    O219    O    0.72564   0.47884   0.54937   1.000
    O220    O    0.27436   0.45037   0.52136   1.000
    O221    O    0.20436   0.53047   0.53073   1.000
    O222    O    0.70418   0.04966   0.52150   1.000
    O223    O    0.76483   0.96958   0.53091   1.000
    O224    O    0.38791   0.02473   0.54457   1.000
    O225    O    0.56755   0.47520   0.54460   1.000
    O226    O    0.36250   0.40902   0.54940   1.000
    O227    O    0.28460   0.38878   0.58021   1.000
    O228    O    0.58806   0.09095   0.54950   1.000
    O229    O    0.63516   0.11120   0.58033   1.000
    O230    O    0.43273   0.38840   0.59165   1.000
    O231    O    0.47566   0.11151   0.59170   1.000
    O232    O    0.27185   0.04916   0.59074   1.000
    O233    O    0.32137   0.09147   0.61151   1.000
    O234    O    0.63748   0.45072   0.59079   1.000
    O235    O    0.56719   0.40843   0.61149   1.000
    O236    O    0.17385   0.07988   0.61085   1.000
    O237    O    0.20673   0.01497   0.63207   1.000
    O238    O    0.71537   0.41996   0.61095   1.000
    O239    O    0.66133   0.48488   0.63195   1.000
    O240    O    0.49994   0.36631   0.63368   1.000
    O241    O    0.42383   0.30469   0.67085   1.000
    O242    O    0.36643   0.13358   0.63373   1.000
    O243    O    0.40561   0.19503   0.67087   1.000
    O244    O    0.57605   0.32926   0.69515   1.000
    O245    O    0.22878   0.17075   0.69516   1.000
    O246    O    0.85213   0.20116   0.71894   1.000
    O247    O    0.07152   0.28111   0.70119   1.000
    O248    O    0.44640   0.20087   0.78135   1.000
    O249    O    0.14777   0.28120   0.79889   1.000
    O250    O    0.10077   0.17082   0.80476   1.000
    O251    O    0.59434   0.32922   0.80485   1.000
    O252    O    0.89923   0.19521   0.82928   1.000
    O253    O    0.77118   0.30480   0.82936   1.000
    O254    O    0.35416   0.48463   0.86759   1.000
    O255    O    0.27809   0.01529   0.86764   1.000
    O256    O    0.00001   0.13372   0.86628   1.000
    O257    O    0.08715   0.09165   0.88840   1.000
    O258    O    0.63353   0.36626   0.86644   1.000
    O259    O    0.52433   0.40833   0.88847   1.000
    O260    O    0.91284   0.11155   0.90843   1.000
    O261    O    0.67855   0.38850   0.90854   1.000
    O262    O    0.24631   0.08020   0.88878   1.000
    O263    O    0.36484   0.41969   0.88879   1.000
    O264    O    0.75371   0.11100   0.92001   1.000
    O265    O    0.82607   0.38918   0.92010   1.000
    O266    O    0.41196   0.45053   0.90903   1.000
    O267    O    0.29583   0.47851   0.95034   1.000
    O268    O    0.17892   0.04942   0.90905   1.000
    O269    O    0.25381   0.02129   0.95039   1.000
    O270    O    0.45731   0.47513   0.95531   1.000
    O271    O    0.08730   0.02489   0.95534   1.000
    O272    O    0.82105   0.09082   0.95075   1.000
    O273    O    0.72805   0.40931   0.95082   1.000
    O274    O    0.19480   0.50789   0.99156   1.000
    O275    O    0.31367   0.99184   0.99163   1.000
loop_
    _geom_bond_atom_site_label_1
    _geom_bond_atom_site_label_2
    _geom_bond_distance
    _geom_bond_site_symmetry_2
    _ccdc_geom_bond_type
    C91    O128      0.54859  1_565   S
    C42    O128      0.54859      .   S
    C91    O129      0.76591      .   S
    C81    O129      0.76591      .   S
    C91    O130      0.55065  1_554   S
    C43    O130      0.55065      .   S
    C91    O131      0.76592  1_564   S
    C59    O131      0.76592      .   S
    C101   O132      0.54860      .   S
    C52    O132      0.54860      .   S
    C101   O133      0.76591      .   S
    C77    O133      0.76591      .   S
    C101   O134      0.55057  1_554   S
    C53    O134      0.55057      .   S
    C101   O135      0.76593  1_554   S
    C69    O135      0.76593      .   S
    C100   O136      0.70999      .   S
    C76    O136      0.70999      .   S
    C100   O137      0.70995  1_554   S
    C68    O137      0.70995      .   S
    C100   O138      0.70231  1_554   S
    C92    O138      0.70231      .   S
    C90    O139      0.70989  1_545   S
    C80    O139      0.70989      .   S
    C90    O140      0.71005  1_554   S
    C58    O140      0.71005      .   S
    C90    O141      0.70251      .   S
    C96    O141      0.70251  1_466   S
    C10    O142      0.55265  1_554   S
    C59    O142      0.55265      .   S
    C20    O143      0.55273  1_554   S
    C69    O143      0.55273      .   S
    C85    O144      0.74879      .   S
    C84    O144      0.74879      .   S
    C85    O145      0.55031      .   S
    C37    O145      0.55031      .   S
    C85    O146      0.55295      .   S
    C36    O146      0.55295  1_556   S
    C85    O147      0.76595      .   S
    C93    O147      0.76595  1_556   S
    C75    O148      0.74865      .   S
    C74    O148      0.74865      .   S
    C75    O149      0.55074      .   S
    C27    O149      0.55074      .   S
    C75    O150      0.55248      .   S
    C26    O150      0.55248  1_556   S
    C75    O151      0.76488      .   S
    C97    O151      0.76488  1_546   S
    C84    O152      0.67062      .   S
    C126   O152      0.67062      .   S
    C84    O153      0.70995      .   S
    C92    O153      0.70995  1_556   S
    C74    O154      0.67058      .   S
    C121   O154      0.67058      .   S
    C74    O155      0.71003      .   S
    C96    O155      0.71003  1_556   S
    C45    O156      0.55059      .   S
    C93    O156      0.55059  1_556   S
    C49    O157      0.55110      .   S
    C97    O157      0.55110  1_556   S
    C76    O158      0.74884      .   S
    C77    O158      0.74884      .   S
    C76    O159      0.67056      .   S
    C122   O159      0.67056      .   S
    C80    O160      0.74883      .   S
    C81    O160      0.74883      .   S
    C80    O161      0.67063      .   S
    C124   O161      0.67063      .   S
    C81    O162      0.55033      .   S
    C33    O162      0.55033      .   S
    C81    O163      0.55270      .   S
    C32    O163      0.55270  1_545   S
    C77    O164      0.55023      .   S
    C29    O164      0.55023      .   S
    C77    O165      0.55270      .   S
    C28    O165      0.55270      .   S
    C126   O166      0.69609      .   S
    C122   O166      0.69609      .   S
    C126   O167      1.01624      .   S
    C5     O167      1.01624      .   S
    C121   O168      0.69632  1_455   S
    C124   O168      0.69632      .   S
    C121   O169      1.01574      .   S
    C5     O169      1.01574      .   S
    C122   O170      1.01441      .   S
    C6     O170      1.01441      .   S
    C124   O171      1.01567      .   S
    C7     O171      1.01567      .   S
    C108   O172      1.33710      .   S
    C4     O172      1.33710      .   S
    C111   O173      1.33701      .   S
    C7     O173      1.33701      .   S
    C5     O174      1.33681      .   S
    C110   O174      1.33681      .   S
    C6     O175      1.01511      .   S
    C125   O175      1.01511      .   S
    C7     O176      1.33702      .   S
    C109   O176      1.33702      .   S
    C7     O177      1.01594      .   S
    C123   O177      1.01594      .   S
    C4     O178      1.01470      .   S
    C127   O178      1.01470      .   S
    C4     O179      1.01499      .   S
    C120   O179      1.01499      .   S
    C34    O180      0.55240      .   S
    C83    O180      0.55240      .   S
    C30    O181      0.55263  1_545   S
    C79    O181      0.55263      .   S
    C125   O182      0.69605      .   S
    C120   O182      0.69605      .   S
    C125   O183      0.67003      .   S
    C82    O183      0.67003      .   S
    C123   O184      0.69609      .   S
    C127   O184      0.69609      .   S
    C123   O185      0.67059      .   S
    C78    O185      0.67059      .   S
    C127   O186      0.67058      .   S
    C86    O186      0.67058      .   S
    C120   O187      0.67058      .   S
    C72    O187      0.67058      .   S
    C35    O188      0.55016      .   S
    C83    O188      0.55016      .   S
    C31    O189      0.55034      .   S
    C79    O189      0.55034      .   S
    C39    O190      0.55038      .   S
    C87    O190      0.55038      .   S
    C25    O191      0.55034      .   S
    C73    O191      0.55034      .   S
    C83    O192      0.74785      .   S
    C82    O192      0.74785      .   S
    C83    O193      0.76614      .   S
    C89    O193      0.76614      .   S
    C79    O194      0.74883      .   S
    C78    O194      0.74883      .   S
    C79    O195      0.76587      .   S
    C103   O195      0.76587  1_545   S
    C82    O196      0.71171      .   S
    C88    O196      0.71171      .   S
    C78    O197      0.71001      .   S
    C102   O197      0.71001  1_545   S
    C47    O198      0.55048      .   S
    C95    O198      0.55048  1_565   S
    C51    O199      0.55055      .   S
    C99    O199      0.55055      .   S
    C86    O200      0.74887      .   S
    C87    O200      0.74887      .   S
    C86    O201      0.70969      .   S
    C94    O201      0.70969      .   S
    C72    O202      0.74884      .   S
    C73    O202      0.74884      .   S
    C72    O203      0.70999      .   S
    C98    O203      0.70999      .   S
    C87    O204      0.76593      .   S
    C95    O204      0.76593      .   S
    C87    O205      0.55272      .   S
    C38    O205      0.55272      .   S
    C73    O206      0.76594      .   S
    C99    O206      0.76594      .   S
    C73    O207      0.55269      .   S
    C24    O207      0.55269      .   S
    C40    O208      0.54860      .   S
    C89    O208      0.54860      .   S
    C54    O209      0.54861      .   S
    C103   O209      0.54861      .   S
    C8     O210      0.55273      .   S
    C57    O210      0.55273      .   S
    C22    O211      0.55272      .   S
    C71    O211      0.55272      .   S
    C88    O212      0.70229      .   S
    C98    O212      0.70229      .   S
    C88    O213      0.71000      .   S
    C56    O213      0.71000      .   S
    C102   O214      0.70229  1_545   S
    C94    O214      0.70229      .   S
    C102   O215      0.70999      .   S
    C70    O215      0.70999      .   S
    C95    O216      0.54859      .   S
    C46    O216      0.54859      .   S
    C95    O217      0.76587  1_565   S
    C63    O217      0.76587      .   S
    C99    O218      0.54861      .   S
    C50    O218      0.54861      .   S
    C99    O219      0.76580      .   S
    C67    O219      0.76580      .   S
    C89    O220      0.76596      .   S
    C57    O220      0.76596      .   S
    C89    O221      0.55056      .   S
    C41    O221      0.55056      .   S
    C103   O222      0.76592      .   S
    C71    O222      0.76592      .   S
    C103   O223      0.55050  1_545   S
    C55    O223      0.55050      .   S
    C94    O224      0.71016  1_565   S
    C62    O224      0.71016      .   S
    C98    O225      0.71000      .   S
    C66    O225      0.71000      .   S
    C57    O226      0.74886      .   S
    C56    O226      0.74886      .   S
    C57    O227      0.55031      .   S
    C9     O227      0.55031      .   S
    C71    O228      0.74885      .   S
    C70    O228      0.74885      .   S
    C71    O229      0.55035      .   S
    C23    O229      0.55035      .   S
    C56    O230      0.67053      .   S
    C112   O230      0.67053      .   S
    C70    O231      0.67055      .   S
    C119   O231      0.67055      .   S
    C62    O232      0.74883      .   S
    C63    O232      0.74883      .   S
    C62    O233      0.67058      .   S
    C115   O233      0.67058      .   S
    C66    O234      0.74868      .   S
    C67    O234      0.74868      .   S
    C66    O235      0.67040      .   S
    C117   O235      0.67040      .   S
    C63    O236      0.55034      .   S
    C15    O236      0.55034      .   S
    C63    O237      0.55266      .   S
    C14    O237      0.55266  1_565   S
    C67    O238      0.55044      .   S
    C19    O238      0.55044      .   S
    C67    O239      0.55079      .   S
    C18    O239      0.55079      .   S
    C112   O240      0.69572      .   S
    C117   O240      0.69572      .   S
    C112   O241      1.01495      .   S
    C0     O241      1.01495      .   S
    C119   O242      0.69609      .   S
    C115   O242      0.69609      .   S
    C119   O243      1.01418      .   S
    C0     O243      1.01418      .   S
    C117   O244      1.01491      .   S
    C2     O244      1.01491      .   S
    C115   O245      1.01608      .   S
    C3     O245      1.01608      .   S
    C106   O246      1.33701      .   S
    C1     O246      1.33701      .   S
    C105   O247      1.33700      .   S
    C3     O247      1.33700      .   S
    C0     O248      1.33742      .   S
    C104   O248      1.33742      .   S
    C3     O249      1.33684      .   S
    C107   O249      1.33684      .   S
    C3     O250      1.01555      .   S
    C116   O250      1.01555      .   S
    C2     O251      1.01508      .   S
    C114   O251      1.01508      .   S
    C1     O252      1.01585      .   S
    C113   O252      1.01585      .   S
    C1     O253      1.01613      .   S
    C118   O253      1.01613      .   S
    C12    O254      0.55273      .   S
    C61    O254      0.55273      .   S
    C16    O255      0.55266  1_565   S
    C65    O255      0.55266      .   S
    C116   O256      0.69634      .   S
    C113   O256      0.69634  1_655   S
    C116   O257      0.67055      .   S
    C64    O257      0.67055      .   S
    C114   O258      0.69613      .   S
    C118   O258      0.69613      .   S
    C114   O259      0.67056      .   S
    C60    O259      0.67056      .   S
    C113   O260      0.67061      .   S
    C58    O260      0.67061      .   S
    C118   O261      0.67058      .   S
    C68    O261      0.67058      .   S
    C17    O262      0.55035      .   S
    C65    O262      0.55035      .   S
    C13    O263      0.55034      .   S
    C61    O263      0.55034      .   S
    C11    O264      0.55034      .   S
    C59    O264      0.55034      .   S
    C21    O265      0.55033      .   S
    C69    O265      0.55033      .   S
    C61    O266      0.74882      .   S
    C60    O266      0.74882      .   S
    C61    O267      0.76591      .   S
    C93    O267      0.76591      .   S
    C65    O268      0.74882      .   S
    C64    O268      0.74882      .   S
    C65    O269      0.76605      .   S
    C97    O269      0.76605      .   S
    C60    O270      0.71001      .   S
    C92    O270      0.71001      .   S
    C64    O271      0.70992      .   S
    C96    O271      0.70992  1_565   S
    C58    O272      0.74880      .   S
    C59    O272      0.74880      .   S
    C68    O273      0.74880      .   S
    C69    O273      0.74880      .   S
    C44    O274      0.54858      .   S
    C93    O274      0.54858      .   S
    C48    O275      0.54887      .   S
    C97    O275      0.54887  1_545   S
