# CIF file generated by openbabel 2.4.90, see http://openbabel.sf.net
data_I
_chemical_name_common ''
_cell_length_a 13.463
_cell_length_b 13.224
_cell_length_c 13.238
_cell_angle_alpha 91.965
_cell_angle_beta 98.987
_cell_angle_gamma 81.006
_space_group_name_H-M_alt 'P 1'
_space_group_name_Hall 'P 1'
loop_
    _symmetry_equiv_pos_as_xyz
    x,y,z
loop_
    _atom_site_label
    _atom_site_type_symbol
    _atom_site_fract_x
    _atom_site_fract_y
    _atom_site_fract_z
    _atom_site_occupancy
    N0      N    0.63055   0.87618   0.18286   1.000
    N1      N    0.13061   0.81697   0.12200   1.000
    Zr2     Zr   0.17877   0.24447   0.60419   1.000
    O3      O    0.02872   0.14137   0.49392   1.000
    O4      O    0.29068   0.15912   0.51671   1.000
    Zr5     Zr   0.01290   0.36507   0.71216   1.000
    O6      O    0.90898   0.22986   0.56915   1.000
    O7      O    0.04355   0.49084   0.80113   1.000
    O8      O    0.93701   0.23449   0.83419   1.000
    O9      O    0.91184   0.50607   0.84257   1.000
    Zr10    Zr   0.51292   0.28743   0.63492   1.000
    O11     O    0.40902   0.43053   0.76966   1.000
    O12     O    0.43700   0.16548   0.76505   1.000
    O13     O    0.41187   0.15711   0.49346   1.000
    O14     O    0.54356   0.19814   0.50913   1.000
    Zr15    Zr   0.67877   0.39573   0.75547   1.000
    O16     O    0.52873   0.50597   0.85812   1.000
    O17     O    0.79066   0.48316   0.84039   1.000
    O18     O    0.67260   0.52244   0.85624   1.000
    O19     O    0.17261   0.14368   0.47704   1.000
loop_
    _geom_bond_atom_site_label_1
    _geom_bond_atom_site_label_2
    _geom_bond_distance
    _geom_bond_site_symmetry_2
    _ccdc_geom_bond_type
    Zr2    O3        2.80611      .   S
    N0     O3        7.48206  1_665   S
    Zr2    O4        2.19292      .   S
    N0     O4        7.36882  1_565   S
    Zr5    O6        2.90876  1_455   S
    N0     O6        7.74142  1_565   S
    Zr5    O7        2.06201      .   S
    N1     O7        6.06510  1_554   S
    Zr5    O8        2.80963  1_455   S
    N0     O8        8.62204  1_564   S
    Zr5    O9        2.83333  1_455   S
    N0     O9        7.52409  1_554   S
    Zr10   O11       2.90516      .   S
    N1     O11       7.73030  1_554   S
    Zr10   O12       2.80524      .   S
    N1     O12       8.60878  1_564   S
    Zr10   O13       2.83614      .   S
    N1     O13       7.53275  1_565   S
    Zr10   O14       2.06516      .   S
    N0     O14       6.07571  1_565   S
    Zr15   O16       2.80234      .   S
    N1     O16       7.47111  1_554   S
    Zr15   O17       2.19000      .   S
    N1     O17       7.36127  1_454   S
    Zr15   O18       2.10530      .   S
    N0     O18       6.28066  1_554   S
    Zr2    O19       2.11046      .   S
    N1     O19       6.29414  1_565   S
