# CIF file generated by openbabel 2.4.90, see http://openbabel.sf.net
data_I
_chemical_name_common ''
_cell_length_a 13.463
_cell_length_b 13.224
_cell_length_c 13.238
_cell_angle_alpha 91.965
_cell_angle_beta 98.987
_cell_angle_gamma 81.006
_space_group_name_H-M_alt 'P 1'
_space_group_name_Hall 'P 1'
loop_
    _symmetry_equiv_pos_as_xyz
    x,y,z
loop_
    _atom_site_label
    _atom_site_type_symbol
    _atom_site_fract_x
    _atom_site_fract_y
    _atom_site_fract_z
    _atom_site_occupancy
    C0      C    0.01290   0.36507   0.71216   1.000
    C1      C    0.17877   0.24447   0.60419   1.000
    C2      C    0.51292   0.28743   0.63492   1.000
    C3      C    0.67877   0.39573   0.75547   1.000
    C4      C    0.49352   0.00000   0.21104   1.000
    C5      C    0.45000   0.92310   0.13050   1.000
    C6      C    0.62890   0.88407   0.01175   1.000
    C7      C    0.57545   0.78621   0.06570   1.000
    C8      C    0.59897   0.89354   0.33159   1.000
    C9      C    0.69640   0.80177   0.28875   1.000
    C10     C    0.70139   0.00000   0.13211   1.000
    C11     C    0.77258   0.92194   0.21410   1.000
    C12     C    0.32062   0.05411   0.11075   1.000
    C13     C    0.50694   0.12510   0.89232   1.000
    C14     C    0.16859   0.14980   0.00000   1.000
    C15     C    0.35608   0.22320   0.79040   1.000
    C16     C    0.62587   0.73113   0.91678   1.000
    C17     C    0.90424   0.66385   0.12979   1.000
    C18     C    0.68997   0.59678   0.80049   1.000
    C19     C    0.97236   0.53215   0.00713   1.000
    C20     C    0.45055   0.61643   0.22921   1.000
    C21     C    0.66271   0.76570   0.43878   1.000
    C22     C    0.45696   0.48335   0.36143   1.000
    C23     C    0.66895   0.63292   0.56652   1.000
    C24     C    0.88586   0.99468   0.27973   1.000
    C25     C    0.64592   0.14971   0.43665   1.000
    C26     C    0.00000   0.05919   0.41076   1.000
    C27     C    0.77565   0.21815   0.56459   1.000
    C28     C    0.99352   0.78877   0.97636   1.000
    C29     C    0.95003   0.86947   0.07693   1.000
    C30     C    0.12889   0.98837   0.11594   1.000
    C31     C    0.07538   0.93433   0.21366   1.000
    C32     C    0.09896   0.66819   0.10655   1.000
    C33     C    0.19637   0.71111   0.19821   1.000
    C34     C    0.20149   0.86795   0.97868   1.000
    C35     C    0.27259   0.78567   0.07810   1.000
    C36     C    0.82084   0.88896   0.94619   1.000
    C37     C    0.00000   0.10763   0.87477   1.000
    C38     C    0.66876   0.99486   0.85027   1.000
    C39     C    0.85603   0.20941   0.77658   1.000
    C40     C    0.12573   0.08331   0.26899   1.000
    C41     C    0.40418   0.87003   0.33578   1.000
    C42     C    0.18984   0.19954   0.40337   1.000
    C43     C    0.47231   0.99264   0.46754   1.000
    C44     C    0.95043   0.77109   0.38328   1.000
    C45     C    0.16263   0.56104   0.23438   1.000
    C46     C    0.95684   0.63891   0.51600   1.000
    C47     C    0.16888   0.43335   0.36720   1.000
    C48     C    0.38583   0.72034   0.00000   1.000
    C49     C    0.14591   0.56319   0.85038   1.000
    C50     C    0.51368   0.58928   0.94049   1.000
    C51     C    0.27564   0.43523   0.78182   1.000
    C52     C    0.61443   0.90628   0.17244   1.000
    C53     C    0.50955   0.97245   0.14647   1.000
    C54     C    0.63362   0.83717   0.07989   1.000
    C55     C    0.61833   0.84244   0.26789   1.000
    C56     C    0.69952   0.97287   0.19737   1.000
    C57     C    0.42354   0.08261   0.00716   1.000
    C58     C    0.32832   0.08917   0.03970   1.000
    C59     C    0.43287   0.13094   0.91712   1.000
    C60     C    0.24315   0.14324   0.98061   1.000
    C61     C    0.34768   0.18508   0.85943   1.000
    C62     C    0.25134   0.19149   0.89002   1.000
    C63     C    0.15976   0.24921   0.83014   1.000
    C64     C    0.76158   0.70538   0.03140   1.000
    C65     C    0.70093   0.68691   0.93862   1.000
    C66     C    0.85921   0.64871   0.05668   1.000
    C67     C    0.73758   0.61029   0.87270   1.000
    C68     C    0.89616   0.57546   0.98888   1.000
    C69     C    0.83518   0.55432   0.89661   1.000
    C70     C    0.87651   0.47507   0.82567   1.000
    C71     C    0.55593   0.69919   0.32498   1.000
    C72     C    0.49731   0.61977   0.30396   1.000
    C73     C    0.61723   0.70465   0.42031   1.000
    C74     C    0.50133   0.54584   0.37731   1.000
    C75     C    0.62065   0.63003   0.49279   1.000
    C76     C    0.56352   0.54980   0.47267   1.000
    C77     C    0.57178   0.47068   0.55223   1.000
    C78     C    0.75708   0.06805   0.35041   1.000
    C79     C    0.86076   0.04215   0.34248   1.000
    C80     C    0.72676   0.13077   0.43100   1.000
    C81     C    0.93300   0.07896   0.41581   1.000
    C82     C    0.79924   0.16851   0.50261   1.000
    C83     C    0.90351   0.14323   0.49575   1.000
    C84     C    0.98005   0.18979   0.56793   1.000
    C85     C    0.11444   0.82749   0.09374   1.000
    C86     C    0.00960   0.85345   0.02764   1.000
    C87     C    0.13358   0.92014   0.16277   1.000
    C88     C    0.11832   0.73199   0.15750   1.000
    C89     C    0.19955   0.80255   0.02723   1.000
    C90     C    0.92365   0.99268   0.91745   1.000
    C91     C    0.82848   0.95998   0.91099   1.000
    C92     C    0.93290   0.08276   0.86900   1.000
    C93     C    0.74329   0.01902   0.85681   1.000
    C94     C    0.84770   0.14037   0.81480   1.000
    C95     C    0.75143   0.10963   0.80844   1.000
    C96     C    0.65978   0.16921   0.75058   1.000
    C97     C    0.26150   0.96855   0.29452   1.000
    C98     C    0.20081   0.06141   0.31312   1.000
    C99     C    0.35915   0.94318   0.35105   1.000
    C100    C    0.23746   0.12729   0.38975   1.000
    C101    C    0.39609   0.01098   0.42431   1.000
    C102    C    0.33508   0.10329   0.44559   1.000
    C103    C    0.37645   0.17419   0.52484   1.000
    C104    C    0.05585   0.67506   0.30071   1.000
    C105    C    0.99720   0.69624   0.38003   1.000
    C106    C    0.11715   0.57962   0.29536   1.000
    C107    C    0.00000   0.62291   0.45398   1.000
    C108    C    0.12057   0.50717   0.30000   1.000
    C109    C    0.06342   0.52744   0.45012   1.000
    C110    C    0.07168   0.44786   0.52922   1.000
    C111    C    0.25707   0.64953   0.93191   1.000
    C112    C    0.36073   0.65753   0.95760   1.000
    C113    C    0.22675   0.56839   0.86920   1.000
    C114    C    0.43297   0.58418   0.92080   1.000
    C115    C    0.29923   0.49727   0.83141   1.000
    C116    C    0.40349   0.50417   0.85660   1.000
    C117    C    0.48005   0.43195   0.81000   1.000
    C118    C    0.51225   0.03074   0.05765   1.000
    C119    C    0.73294   0.77754   0.10220   1.000
    C120    C    0.54939   0.76886   0.24846   1.000
    C121    C    0.67893   0.03598   0.28437   1.000
    C122    C    0.07339   0.25682   0.85560   1.000
    C123    C    0.17047   0.29819   0.74700   1.000
    C124    C    0.82175   0.41226   0.77744   1.000
    C125    C    0.96914   0.47084   0.81401   1.000
    C126    C    0.52279   0.39561   0.53271   1.000
    C127    C    0.62997   0.48486   0.63630   1.000
    C128    C    0.07479   0.15624   0.56470   1.000
    C129    C    0.94625   0.26120   0.62666   1.000
    C130    C    0.01237   0.94226   0.96934   1.000
    C131    C    0.23288   0.89776   0.22236   1.000
    C132    C    0.04934   0.75156   0.23102   1.000
    C133    C    0.17893   0.71557   0.96409   1.000
    C134    C    0.57367   0.14311   0.74265   1.000
    C135    C    0.67019   0.25270   0.70180   1.000
    C136    C    0.32172   0.22249   0.58761   1.000
    C137    C    0.46911   0.18574   0.52911   1.000
    C138    C    0.02266   0.46743   0.60421   1.000
    C139    C    0.12991   0.36369   0.51510   1.000
    C140    C    0.57476   0.43517   0.84360   1.000
    C141    C    0.44630   0.37317   0.73868   1.000
    O142    O    0.37328   0.68893   0.97880   1.000
    O143    O    0.20587   0.14652   0.99030   1.000
    O144    O    0.93426   0.55381   0.99800   1.000
    O145    O    0.37593   0.08589   0.02343   1.000
    O146    O    0.46790   0.05668   0.03241   1.000
    O147    O    0.42820   0.10677   0.96214   1.000
    O148    O    0.63126   0.86062   0.04582   1.000
    O149    O    0.23607   0.79411   0.05266   1.000
    O150    O    0.15700   0.81502   0.06048   1.000
    O151    O    0.18924   0.75906   0.99566   1.000
    O152    O    0.20052   0.83525   0.00295   1.000
    O153    O    0.97981   0.86146   0.05228   1.000
    O154    O    0.06202   0.84047   0.06069   1.000
    O155    O    0.01098   0.89786   0.99849   1.000
    O156    O    0.00156   0.82111   0.00200   1.000
    O157    O    0.81040   0.67704   0.04404   1.000
    O158    O    0.74726   0.74146   0.06680   1.000
    O159    O    0.73126   0.69614   0.98501   1.000
    O160    O    0.32447   0.07164   0.07523   1.000
    O161    O    0.28573   0.11620   0.01016   1.000
    O162    O    0.88172   0.65628   0.09323   1.000
    O163    O    0.87769   0.61208   0.02278   1.000
    O164    O    0.51090   0.00160   0.10206   1.000
    O165    O    0.60453   0.81169   0.07279   1.000
    O166    O    0.68328   0.80735   0.09105   1.000
    O167    O    0.62402   0.87172   0.12616   1.000
    O168    O    0.11638   0.77974   0.12562   1.000
    O169    O    0.12401   0.87381   0.12826   1.000
    O170    O    0.10864   0.70009   0.13203   1.000
    O171    O    0.13123   0.95425   0.13936   1.000
    O172    O    0.47978   0.94778   0.13848   1.000
    O173    O    0.70046   0.98643   0.16474   1.000
    O174    O    0.56199   0.93936   0.15946   1.000
    O175    O    0.50153   0.98623   0.17875   1.000
    O176    O    0.15735   0.72155   0.17785   1.000
    O177    O    0.08383   0.74177   0.19426   1.000
    O178    O    0.10448   0.92723   0.18821   1.000
    O179    O    0.18323   0.90895   0.19256   1.000
    O180    O    0.65697   0.93957   0.18491   1.000
    O181    O    0.61638   0.87436   0.22016   1.000
    O182    O    0.73605   0.94741   0.20574   1.000
    O183    O    0.68922   0.00443   0.24087   1.000
    O184    O    0.24719   0.93315   0.25844   1.000
    O185    O    0.47393   0.61810   0.26658   1.000
    O186    O    0.05259   0.71331   0.26587   1.000
    O187    O    0.13989   0.57033   0.26487   1.000
    O188    O    0.58386   0.80565   0.25817   1.000
    O189    O    0.55266   0.73403   0.28672   1.000
    O190    O    0.65737   0.82210   0.27832   1.000
    O191    O    0.60865   0.86799   0.29974   1.000
    O192    O    0.16327   0.07236   0.29105   1.000
    O193    O    0.87331   0.01842   0.31111   1.000
    O194    O    0.71800   0.05202   0.31739   1.000
    O195    O    0.23116   0.01498   0.30382   1.000
    O196    O    0.31033   0.95586   0.32278   1.000
    O197    O    0.11886   0.54340   0.29768   1.000
    O198    O    0.08650   0.62734   0.29803   1.000
    O199    O    0.14472   0.47026   0.33360   1.000
    O200    O    0.02653   0.68565   0.34037   1.000
    O201    O    0.52662   0.65948   0.31447   1.000
    O202    O    0.49932   0.58280   0.34063   1.000
    O203    O    0.21913   0.09435   0.35143   1.000
    O204    O    0.58658   0.70192   0.37265   1.000
    O205    O    0.38166   0.90660   0.34341   1.000
    O206    O    0.80892   0.05510   0.34645   1.000
    O207    O    0.89688   0.06056   0.37914   1.000
    O208    O    0.74192   0.09941   0.39070   1.000
    O209    O    0.37762   0.97708   0.38768   1.000
    O210    O    0.47915   0.51459   0.36937   1.000
    O211    O    0.53243   0.54782   0.42499   1.000
    O212    O    0.97382   0.73367   0.38165   1.000
    O213    O    0.99860   0.65958   0.41700   1.000
    O214    O    0.21365   0.16342   0.39656   1.000
    O215    O    0.28627   0.11529   0.41767   1.000
    O216    O    0.96650   0.06908   0.41328   1.000
    O217    O    0.91825   0.11110   0.45578   1.000
    O218    O    0.63997   0.73518   0.42955   1.000
    O219    O    0.61894   0.66734   0.45655   1.000
    O220    O    0.36559   0.05714   0.43495   1.000
    O221    O    0.43420   0.00181   0.44592   1.000
    O222    O    0.68634   0.14024   0.43382   1.000
    O223    O    0.76300   0.14964   0.46680   1.000
    O224    O    0.35577   0.13874   0.48521   1.000
    O225    O    0.03171   0.57517   0.45205   1.000
    O226    O    0.06755   0.48765   0.48967   1.000
    O227    O    0.97842   0.63091   0.48499   1.000
    O228    O    0.59208   0.58992   0.48273   1.000
    O229    O    0.56765   0.51024   0.51245   1.000
    O230    O    0.64480   0.63147   0.52965   1.000
    O231    O    0.85138   0.15587   0.49918   1.000
    O232    O    0.94178   0.16651   0.53184   1.000
    O233    O    0.78745   0.19333   0.53360   1.000
    O234    O    0.10079   0.40578   0.52216   1.000
    O235    O    0.15434   0.30408   0.55964   1.000
    O236    O    0.42278   0.17997   0.52697   1.000
    O237    O    0.34909   0.19834   0.55622   1.000
    O238    O    0.49102   0.23659   0.58201   1.000
    O239    O    0.04717   0.45765   0.56671   1.000
    O240    O    0.54729   0.43314   0.54247   1.000
    O241    O    0.51786   0.34152   0.58382   1.000
    O242    O    0.60087   0.47777   0.59426   1.000
    O243    O    0.02742   0.17302   0.56631   1.000
    O244    O    0.12678   0.20036   0.58444   1.000
    O245    O    0.96315   0.22550   0.59729   1.000
    O246    O    0.25025   0.23348   0.59590   1.000
    O247    O    0.17462   0.27133   0.67559   1.000
    O248    O    0.01778   0.41625   0.65819   1.000
    O249    O    0.97958   0.31314   0.66941   1.000
    O250    O    0.47961   0.33030   0.68680   1.000
    O251    O    0.65437   0.44029   0.69588   1.000
    O252    O    0.66499   0.21096   0.72619   1.000
    O253    O    0.67448   0.32421   0.72864   1.000
    O254    O    0.99102   0.41796   0.76309   1.000
    O255    O    0.46317   0.40256   0.77434   1.000
    O256    O    0.61672   0.15616   0.74661   1.000
    O257    O    0.16511   0.27370   0.78857   1.000
    O258    O    0.70561   0.13942   0.77951   1.000
    O259    O    0.75026   0.40399   0.76645   1.000
    O260    O    0.62676   0.41545   0.79954   1.000
    O261    O    0.85187   0.17489   0.79569   1.000
    O262    O    0.84913   0.44366   0.80155   1.000
    O263    O    0.28743   0.46625   0.80661   1.000
    O264    O    0.35188   0.20414   0.82491   1.000
    O265    O    0.71377   0.60354   0.83659   1.000
    O266    O    0.79957   0.12500   0.81162   1.000
    O267    O    0.74736   0.06432   0.83262   1.000
    O268    O    0.52740   0.43356   0.82680   1.000
    O269    O    0.44177   0.46806   0.83330   1.000
    O270    O    0.92282   0.47296   0.81984   1.000
    O271    O    0.89030   0.11156   0.84190   1.000
    O272    O    0.85585   0.51469   0.86114   1.000
    O273    O    0.11657   0.25302   0.84287   1.000
    O274    O    0.20555   0.22035   0.86008   1.000
    O275    O    0.35136   0.50072   0.84401   1.000
    O276    O    0.26299   0.53283   0.85030   1.000
    O277    O    0.70603   0.00694   0.85354   1.000
    O278    O    0.18633   0.56579   0.85979   1.000
    O279    O    0.41823   0.54418   0.88870   1.000
    O280    O    0.78589   0.98950   0.88390   1.000
    O281    O    0.29951   0.18829   0.87472   1.000
    O282    O    0.39027   0.15801   0.88827   1.000
    O283    O    0.96645   0.09520   0.87189   1.000
    O284    O    0.92828   0.03772   0.89322   1.000
    O285    O    0.24191   0.60896   0.90055   1.000
    O286    O    0.78638   0.58231   0.88465   1.000
    O287    O    0.71926   0.64860   0.90566   1.000
    O288    O    0.24725   0.16737   0.93532   1.000
    O289    O    0.46990   0.12802   0.90472   1.000
    O290    O    0.86567   0.56489   0.94275   1.000
    O291    O    0.87606   0.97633   0.91422   1.000
    O292    O    0.82466   0.92447   0.92859   1.000
    O293    O    0.66340   0.70902   0.92770   1.000
    O294    O    0.96801   0.96747   0.94339   1.000
    O295    O    0.47333   0.58673   0.93064   1.000
    O296    O    0.39685   0.62085   0.93920   1.000
    O297    O    0.30890   0.65353   0.94475   1.000
    O298    O    0.21800   0.68255   0.94800   1.000
    O299    O    0.09168   0.33163   0.72958   1.000
    O300    O    0.59156   0.27007   0.66836   1.000
loop_
    _geom_bond_atom_site_label_1
    _geom_bond_atom_site_label_2
    _geom_bond_distance
    _geom_bond_site_symmetry_2
    _ccdc_geom_bond_type
    C48    O142      0.52814  1_554   S
    C112   O142      0.52814      .   S
    C14    O143      0.53211  1_554   S
    C60    O143      0.53211      .   S
    C19    O144      0.54477  1_554   S
    C68    O144      0.54477      .   S
    C57    O145      0.70213      .   S
    C58    O145      0.70213      .   S
    C57    O146      0.68364      .   S
    C118   O146      0.68364      .   S
    C57    O147      0.70161  1_554   S
    C59    O147      0.70161      .   S
    C6     O148      0.55013      .   S
    C54    O148      0.55013      .   S
    C89    O149      0.54887      .   S
    C35    O149      0.54887      .   S
    C89    O150      0.77041      .   S
    C85    O150      0.77041      .   S
    C89    O151      0.71769  1_554   S
    C133   O151      0.71769      .   S
    C89    O152      0.55044      .   S
    C34    O152      0.55044  1_556   S
    C86    O153      0.55105  1_455   S
    C29    O153      0.55105      .   S
    C86    O154      0.76798      .   S
    C85    O154      0.76798      .   S
    C86    O155      0.71783  1_554   S
    C130   O155      0.71783      .   S
    C86    O156      0.55035      .   S
    C28    O156      0.55035  1_656   S
    C64    O157      0.70230      .   S
    C66    O157      0.70230      .   S
    C64    O158      0.68451      .   S
    C119   O158      0.68451      .   S
    C64    O159      0.70060  1_554   S
    C65    O159      0.70060      .   S
    C58    O160      0.54447      .   S
    C12    O160      0.54447      .   S
    C58    O161      0.69637      .   S
    C60    O161      0.69637  1_556   S
    C66    O162      0.54442      .   S
    C17    O162      0.54442      .   S
    C66    O163      0.69293      .   S
    C68    O163      0.69293  1_556   S
    C118   O164      0.71804      .   S
    C53    O164      0.71804  1_565   S
    C7     O165      0.55073      .   S
    C54    O165      0.55073      .   S
    C54    O166      0.71764      .   S
    C119   O166      0.71764      .   S
    C54    O167      0.76669      .   S
    C52    O167      0.76669      .   S
    C85    O168      0.76628      .   S
    C88    O168      0.76628      .   S
    C85    O169      0.76665      .   S
    C87    O169      0.76665      .   S
    C32    O170      0.54986      .   S
    C88    O170      0.54986      .   S
    C30    O171      0.55015      .   S
    C87    O171      0.55015      .   S
    C5     O172      0.55102      .   S
    C53    O172      0.55102      .   S
    C10    O173      0.47607  1_545   S
    C56    O173      0.47607      .   S
    C53    O174      0.76814      .   S
    C52    O174      0.76814      .   S
    C53    O175      0.48002      .   S
    C4     O175      0.48002  1_545   S
    C88    O176      0.55078      .   S
    C33    O176      0.55078      .   S
    C88    O177      0.71881      .   S
    C132   O177      0.71881      .   S
    C87    O178      0.55075      .   S
    C31    O178      0.55075      .   S
    C87    O179      0.71761      .   S
    C131   O179      0.71761      .   S
    C52    O180      0.77043      .   S
    C56    O180      0.77043      .   S
    C52    O181      0.76658      .   S
    C55    O181      0.76658      .   S
    C56    O182      0.54887      .   S
    C11    O182      0.54887      .   S
    C56    O183      0.71787  1_565   S
    C121   O183      0.71787      .   S
    C131   O184      0.68446      .   S
    C97    O184      0.68446      .   S
    C20    O185      0.54512      .   S
    C72    O185      0.54512      .   S
    C132   O186      0.68794      .   S
    C104   O186      0.68794      .   S
    C45    O187      0.54328      .   S
    C106   O187      0.54328      .   S
    C120   O188      0.71849      .   S
    C55    O188      0.71849      .   S
    C120   O189      0.68801      .   S
    C71    O189      0.68801      .   S
    C55    O190      0.55067      .   S
    C9     O190      0.55067      .   S
    C55    O191      0.55005      .   S
    C8     O191      0.55005      .   S
    C40    O192      0.54373      .   S
    C98    O192      0.54373      .   S
    C24    O193      0.54406  1_565   S
    C79    O193      0.54406      .   S
    C121   O194      0.68521      .   S
    C78    O194      0.68521      .   S
    C97    O195      0.70081  1_565   S
    C98    O195      0.70081      .   S
    C97    O196      0.70227      .   S
    C99    O196      0.70227      .   S
    C106   O197      0.47774      .   S
    C108   O197      0.47774      .   S
    C106   O198      0.70104      .   S
    C104   O198      0.70104      .   S
    C108   O199      0.67964      .   S
    C47    O199      0.67964      .   S
    C104   O200      0.70252      .   S
    C105   O200      0.70252  1_655   S
    C72    O201      0.70249      .   S
    C71    O201      0.70249      .   S
    C72    O202      0.69529      .   S
    C74    O202      0.69529      .   S
    C98    O203      0.69801      .   S
    C100   O203      0.69801      .   S
    C71    O204      0.70105      .   S
    C73    O204      0.70105      .   S
    C41    O205      0.54441      .   S
    C99    O205      0.54441      .   S
    C79    O206      0.70184      .   S
    C78    O206      0.70184      .   S
    C79    O207      0.69748      .   S
    C81    O207      0.69748      .   S
    C78    O208      0.70041      .   S
    C80    O208      0.70041      .   S
    C99    O209      0.69299      .   S
    C101   O209      0.69299  1_545   S
    C22    O210      0.54475      .   S
    C74    O210      0.54475      .   S
    C74    O211      0.70291      .   S
    C76    O211      0.70291      .   S
    C105   O212      0.54512      .   S
    C44    O212      0.54512      .   S
    C105   O213      0.69685      .   S
    C107   O213      0.69685  1_455   S
    C100   O214      0.54528      .   S
    C42    O214      0.54528      .   S
    C100   O215      0.69941      .   S
    C102   O215      0.69941      .   S
    C26    O216      0.45563  1_455   S
    C81    O216      0.45563      .   S
    C81    O217      0.70068      .   S
    C83    O217      0.70068      .   S
    C73    O218      0.54331      .   S
    C21    O218      0.54331      .   S
    C73    O219      0.69522      .   S
    C75    O219      0.69522      .   S
    C101   O220      0.70343      .   S
    C102   O220      0.70343      .   S
    C101   O221      0.54489      .   S
    C43    O221      0.54489  1_565   S
    C80    O222      0.54582      .   S
    C25    O222      0.54582      .   S
    C80    O223      0.69477      .   S
    C82    O223      0.69477      .   S
    C102   O224      0.74213      .   S
    C103   O224      0.74213      .   S
    C109   O225      0.70671      .   S
    C107   O225      0.70671      .   S
    C109   O226      0.74477      .   S
    C110   O226      0.74477      .   S
    C107   O227      0.53739  1_455   S
    C46    O227      0.53739      .   S
    C76    O228      0.69996      .   S
    C75    O228      0.69996      .   S
    C76    O229      0.74483      .   S
    C77    O229      0.74483      .   S
    C75    O230      0.54403      .   S
    C23    O230      0.54403      .   S
    C83    O231      0.70384      .   S
    C82    O231      0.70384      .   S
    C83    O232      0.74236      .   S
    C84    O232      0.74236      .   S
    C82    O233      0.54411      .   S
    C27    O233      0.54411      .   S
    C139   O234      0.64170      .   S
    C110   O234      0.64170      .   S
    C139   O235      0.98360      .   S
    C1     O235      0.98360      .   S
    C103   O236      0.63635      .   S
    C137   O236      0.63635      .   S
    C103   O237      0.64209      .   S
    C136   O237      0.64209      .   S
    C137   O238      0.99736      .   S
    C2     O238      0.99736      .   S
    C110   O239      0.63671      .   S
    C138   O239      0.63671      .   S
    C126   O240      0.63661      .   S
    C77    O240      0.63661      .   S
    C126   O241      1.01773      .   S
    C2     O241      1.01773      .   S
    C77    O242      0.64162      .   S
    C127   O242      0.64162      .   S
    C128   O243      0.64506      .   S
    C84    O243      0.64506  1_655   S
    C128   O244      0.97913      .   S
    C1     O244      0.97913      .   S
    C84    O245      0.63817      .   S
    C129   O245      0.63817      .   S
    C136   O246      0.97333      .   S
    C1     O246      0.97333      .   S
    C1     O247      1.00502      .   S
    C123   O247      1.00502      .   S
    C138   O248      1.01717      .   S
    C0     O248      1.01717      .   S
    C129   O249      0.99174      .   S
    C0     O249      0.99174  1_455   S
    C2     O250      0.99210      .   S
    C141   O250      0.99210      .   S
    C127   O251      0.98377      .   S
    C3     O251      0.98377      .   S
    C135   O252      0.66728      .   S
    C96    O252      0.66728      .   S
    C135   O253      1.00573      .   S
    C3     O253      1.00573      .   S
    C0     O254      0.99785  1_455   S
    C125   O254      0.99785      .   S
    C141   O255      0.63798      .   S
    C117   O255      0.63798      .   S
    C134   O256      0.62427      .   S
    C96    O256      0.62427      .   S
    C123   O257      0.66696      .   S
    C63    O257      0.66696      .   S
    C96    O258      0.73693      .   S
    C95    O258      0.73693      .   S
    C3     O259      0.97340      .   S
    C124   O259      0.97340      .   S
    C3     O260      0.97903      .   S
    C140   O260      0.97903      .   S
    C39    O261      0.54402      .   S
    C94    O261      0.54402      .   S
    C124   O262      0.64210      .   S
    C70    O262      0.64210      .   S
    C51    O263      0.54412      .   S
    C115   O263      0.54412      .   S
    C15    O264      0.54399      .   S
    C61    O264      0.54399      .   S
    C18    O265      0.54525      .   S
    C67    O265      0.54525      .   S
    C95    O266      0.70359      .   S
    C94    O266      0.70359      .   S
    C95    O267      0.70234      .   S
    C93    O267      0.70234      .   S
    C117   O268      0.64501      .   S
    C140   O268      0.64501      .   S
    C117   O269      0.74253      .   S
    C116   O269      0.74253      .   S
    C125   O270      0.63635      .   S
    C70    O270      0.63635      .   S
    C94    O271      0.69249      .   S
    C92    O271      0.69249      .   S
    C70    O272      0.74218      .   S
    C69    O272      0.74218      .   S
    C63    O273      0.62432      .   S
    C122   O273      0.62432      .   S
    C63    O274      0.73710      .   S
    C62    O274      0.73710      .   S
    C115   O275      0.70383      .   S
    C116   O275      0.70383      .   S
    C115   O276      0.69288      .   S
    C113   O276      0.69288      .   S
    C38    O277      0.54487  1_565   S
    C93    O277      0.54487      .   S
    C49    O278      0.54511      .   S
    C113   O278      0.54511      .   S
    C116   O279      0.70064      .   S
    C114   O279      0.70064      .   S
    C93    O280      0.69659  1_545   S
    C91    O280      0.69659      .   S
    C61    O281      0.70367      .   S
    C62    O281      0.70367      .   S
    C61    O282      0.69250      .   S
    C59    O282      0.69250      .   S
    C92    O283      0.49989      .   S
    C37    O283      0.49989  1_455   S
    C92    O284      0.70176      .   S
    C90    O284      0.70176  1_565   S
    C113   O285      0.70305      .   S
    C111   O285      0.70305      .   S
    C67    O286      0.69942      .   S
    C69    O286      0.69942      .   S
    C67    O287      0.69803      .   S
    C65    O287      0.69803      .   S
    C62    O288      0.70239      .   S
    C60    O288      0.70239      .   S
    C13    O289      0.54423      .   S
    C59    O289      0.54423      .   S
    C69    O290      0.70342      .   S
    C68    O290      0.70342      .   S
    C91    O291      0.70218      .   S
    C90    O291      0.70218      .   S
    C91    O292      0.54425      .   S
    C36    O292      0.54425      .   S
    C16    O293      0.54371      .   S
    C65    O293      0.54371      .   S
    C90    O294      0.68358      .   S
    C130   O294      0.68358  1_455   S
    C114   O295      0.54464      .   S
    C50    O295      0.54464      .   S
    C114   O296      0.69724      .   S
    C112   O296      0.69724      .   S
    C111   O297      0.70179      .   S
    C112   O297      0.70179      .   S
    C111   O298      0.68523      .   S
    C133   O298      0.68523      .   S
    C123   O299      1.07593      .   S
    C0     O299      1.07593      .   S
    C135   O300      1.07422      .   S
    C2     O300      1.07422      .   S
