# CIF file generated by openbabel 2.4.90, see http://openbabel.sf.net
data_I
_chemical_name_common ''
_cell_length_a 16.401
_cell_length_b 16.425
_cell_length_c 16.079
_cell_angle_alpha 90.014
_cell_angle_beta 89.992
_cell_angle_gamma 119.912
_space_group_name_H-M_alt 'P 1'
_space_group_name_Hall 'P 1'
loop_
    _symmetry_equiv_pos_as_xyz
    x,y,z
loop_
    _atom_site_label
    _atom_site_type_symbol
    _atom_site_fract_x
    _atom_site_fract_y
    _atom_site_fract_z
    _atom_site_occupancy
    H0      H    0.39857   0.33925   0.94328   1.000
    H1      H    0.93938   0.60027   0.94254   1.000
    H2      H    0.66086   0.05937   0.94286   1.000
    H3      H    0.60141   0.66078   0.44332   1.000
    H4      H    0.06087   0.40000   0.44241   1.000
    H5      H    0.33917   0.94092   0.44288   1.000
    H6      H    0.05896   0.66073   0.05677   1.000
    H7      H    0.33928   0.39960   0.05750   1.000
    H8      H    0.60104   0.94004   0.05710   1.000
    H9      H    0.94133   0.33932   0.55672   1.000
    H10     H    0.66071   0.60044   0.55756   1.000
    H11     H    0.39922   0.06029   0.55718   1.000
    H12     H    0.60143   0.66077   0.05675   1.000
    H13     H    0.06062   0.39975   0.05748   1.000
    H14     H    0.33914   0.94065   0.05716   1.000
    H15     H    0.39858   0.33925   0.55670   1.000
    H16     H    0.93912   0.60003   0.55760   1.000
    H17     H    0.66083   0.05911   0.55714   1.000
    H18     H    0.94104   0.33929   0.94325   1.000
    H19     H    0.66072   0.60042   0.94246   1.000
    H20     H    0.39896   0.05998   0.94292   1.000
    H21     H    0.05866   0.66071   0.44330   1.000
    H22     H    0.33929   0.39959   0.44246   1.000
    H23     H    0.60078   0.93974   0.44284   1.000
    C24     C    0.44226   0.40952   0.96853   1.000
    C25     C    0.96653   0.55711   0.96813   1.000
    C26     C    0.59055   0.03279   0.96829   1.000
    C27     C    0.55772   0.59051   0.46854   1.000
    C28     C    0.03361   0.44305   0.46806   1.000
    C29     C    0.40946   0.96739   0.46830   1.000
    C30     C    0.03255   0.59048   0.03151   1.000
    C31     C    0.40952   0.44284   0.03194   1.000
    C32     C    0.55751   0.96689   0.03169   1.000
    C33     C    0.96759   0.40956   0.53150   1.000
    C34     C    0.59046   0.55719   0.53195   1.000
    C35     C    0.44261   0.03328   0.53173   1.000
    C36     C    0.55773   0.59050   0.03149   1.000
    C37     C    0.03347   0.44292   0.03189   1.000
    C38     C    0.40945   0.96724   0.03173   1.000
    C39     C    0.44227   0.40952   0.53148   1.000
    C40     C    0.96639   0.55697   0.53196   1.000
    C41     C    0.59054   0.03264   0.53172   1.000
    C42     C    0.96744   0.40954   0.96851   1.000
    C43     C    0.59047   0.55719   0.96800   1.000
    C44     C    0.44249   0.03313   0.96833   1.000
    C45     C    0.03240   0.59047   0.46852   1.000
    C46     C    0.40953   0.44284   0.46800   1.000
    C47     C    0.55738   0.96674   0.46829   1.000
    C48     C    0.56815   0.43083   0.86840   1.000
    C49     C    0.53317   0.46626   0.93560   1.000
    C50     C    0.86273   0.43075   0.86846   1.000
    C51     C    0.93309   0.46620   0.93567   1.000
    C52     C    0.56866   0.13705   0.86843   1.000
    C53     C    0.53348   0.06679   0.93560   1.000
    C54     C    0.43181   0.56918   0.36845   1.000
    C55     C    0.46681   0.53377   0.43566   1.000
    C56     C    0.13724   0.56942   0.36841   1.000
    C57     C    0.06689   0.53393   0.43563   1.000
    C58     C    0.43117   0.86297   0.36840   1.000
    C59     C    0.46641   0.93323   0.43563   1.000
    C60     C    0.13727   0.56927   0.13156   1.000
    C61     C    0.06690   0.53383   0.06435   1.000
    C62     C    0.43185   0.56919   0.13160   1.000
    C63     C    0.46683   0.53376   0.06437   1.000
    C64     C    0.43134   0.86298   0.13159   1.000
    C65     C    0.46652   0.93322   0.06437   1.000
    C66     C    0.86275   0.43061   0.63161   1.000
    C67     C    0.93311   0.46610   0.56439   1.000
    C68     C    0.56818   0.43085   0.63150   1.000
    C69     C    0.53319   0.46626   0.56436   1.000
    C70     C    0.56883   0.13706   0.63160   1.000
    C71     C    0.53359   0.06681   0.56438   1.000
    O72     O    0.65183   0.48443   0.84038   1.000
    O73     O    0.83322   0.34720   0.84047   1.000
    O74     O    0.51477   0.16691   0.84042   1.000
    O75     O    0.34813   0.51556   0.34041   1.000
    O76     O    0.16674   0.65294   0.34044   1.000
    O77     O    0.48504   0.83305   0.34040   1.000
    O78     O    0.16739   0.51567   0.15960   1.000
    O79     O    0.48580   0.65273   0.15958   1.000
    O80     O    0.34762   0.83327   0.15958   1.000
    O81     O    0.83258   0.48421   0.65966   1.000
    O82     O    0.51425   0.34732   0.65956   1.000
    O83     O    0.65251   0.16672   0.65961   1.000
    O84     O    0.34817   0.51559   0.15965   1.000
    O85     O    0.16678   0.65282   0.15955   1.000
    O86     O    0.48523   0.83311   0.15960   1.000
    O87     O    0.65187   0.48446   0.65961   1.000
    O88     O    0.83325   0.34709   0.65958   1.000
    O89     O    0.51496   0.16698   0.65962   1.000
    O90     O    0.83260   0.48436   0.84041   1.000
    O91     O    0.51420   0.34729   0.84044   1.000
    O92     O    0.65238   0.16675   0.84044   1.000
    O93     O    0.16741   0.51582   0.34036   1.000
    O94     O    0.48574   0.65270   0.34046   1.000
    O95     O    0.34748   0.83331   0.34041   1.000
    O96     O    0.66653   0.33281   0.75002   1.000
    O97     O    0.33347   0.66722   0.25000   1.000
loop_
    _geom_bond_atom_site_label_1
    _geom_bond_atom_site_label_2
    _geom_bond_distance
    _geom_bond_site_symmetry_2
    _ccdc_geom_bond_type
    C36    H12       1.08879      .   S
    C36    C63       1.40900      .   S
    C36    C43       1.38653  1_554   S
    C30    H6        1.08879      .   S
    C30    C61       1.40899      .   S
    C30    C25       1.38554  1_454   S
    C32    H8        1.08874      .   S
    C32    C65       1.40922      .   S
    C32    C26       1.38554  1_564   S
    C38    H14       1.08873      .   S
    C38    C65       1.40911      .   S
    C38    C44       1.38554  1_564   S
    C37    H13       1.08871      .   S
    C37    C61       1.40918      .   S
    C37    C42       1.38554  1_454   S
    C31    H7        1.08832      .   S
    C31    C63       1.40909      .   S
    C31    C24       1.38559  1_554   S
    C61    C60       1.47260      .   S
    C65    C64       1.47266      .   S
    C63    C62       1.47268      .   S
    C60    O85       1.28730      .   S
    C60    O78       1.28719      .   S
    C64    O80       1.28745      .   S
    C64    O86       1.28736      .   S
    C62    O79       1.28720      .   S
    C62    O84       1.28724      .   S
    O93    C56       1.28740      .   S
    O77    C58       1.28743      .   S
    O75    C54       1.28730      .   S
    O95    C58       1.28724      .   S
    O76    C56       1.28707      .   S
    O94    C54       1.28722      .   S
    C58    C59       1.47259      .   S
    C56    C57       1.47263      .   S
    C54    C55       1.47275      .   S
    C59    C47       1.40916      .   S
    C59    C29       1.40917      .   S
    C57    C28       1.40914      .   S
    C57    C45       1.40909      .   S
    C55    C46       1.40867      .   S
    C55    C27       1.40901      .   S
    H4     C28       1.08875      .   S
    H22    C46       1.08829      .   S
    H23    C47       1.08874      .   S
    H5     C29       1.08876      .   S
    H21    C45       1.08877      .   S
    H3     C27       1.08877      .   S
    C46    C39       1.38683      .   S
    C28    C33       1.38610  1_455   S
    C47    C41       1.38565  1_565   S
    C29    C35       1.38565  1_565   S
    C45    C40       1.38610  1_455   S
    C27    C34       1.38601      .   S
    C39    H15       1.08876      .   S
    C39    C69       1.40900      .   S
    C33    H9        1.08876      .   S
    C33    C67       1.40905      .   S
    C41    H17       1.08878      .   S
    C41    C71       1.40913      .   S
    C35    H11       1.08875      .   S
    C35    C71       1.40915      .   S
    C34    H10       1.08870      .   S
    C34    C69       1.40907      .   S
    C40    H16       1.08868      .   S
    C40    C67       1.40913      .   S
    C69    C68       1.47196      .   S
    C71    C70       1.47243      .   S
    C67    C66       1.47266      .   S
    C68    O82       1.28760      .   S
    C68    O87       1.28770      .   S
    C70    O83       1.28735      .   S
    C70    O89       1.28755      .   S
    C66    O88       1.28706      .   S
    C66    O81       1.28741      .   S
    O72    C48       1.28708      .   S
    O90    C50       1.28726      .   S
    O74    C52       1.28734      .   S
    O92    C52       1.28745      .   S
    O91    C48       1.28710      .   S
    O73    C50       1.28730      .   S
    C48    C49       1.47228      .   S
    C52    C53       1.47214      .   S
    C50    C51       1.47258      .   S
    C49    C43       1.40892      .   S
    C49    C24       1.40931      .   S
    C53    C26       1.40935      .   S
    C53    C44       1.40949      .   S
    C51    C25       1.40919      .   S
    C51    C42       1.40901      .   S
    H19    C43       1.08819      .   S
    H1     C25       1.08872      .   S
    H2     C26       1.08872      .   S
    H20    C44       1.08872      .   S
    H18    C42       1.08879      .   S
    H0     C24       1.08875      .   S
