# CIF file generated by openbabel 2.4.90, see http://openbabel.sf.net
data_I
_chemical_name_common ''
_cell_length_a 16.401
_cell_length_b 16.425
_cell_length_c 16.079
_cell_angle_alpha 90.014
_cell_angle_beta 89.992
_cell_angle_gamma 119.912
_space_group_name_H-M_alt 'P 1'
_space_group_name_Hall 'P 1'
loop_
    _symmetry_equiv_pos_as_xyz
    x,y,z
loop_
    _atom_site_label
    _atom_site_type_symbol
    _atom_site_fract_x
    _atom_site_fract_y
    _atom_site_fract_z
    _atom_site_occupancy
    Sc0     Sc   0.73584   0.26386   0.75000   1.000
    Sc1     Sc   0.52838   0.26398   0.75000   1.000
    Sc2     Sc   0.26455   0.52927   0.25002   1.000
    Sc3     Sc   0.26416   0.73616   0.24996   1.000
    Sc4     Sc   0.47162   0.73604   0.25002   1.000
    Sc5     Sc   0.73544   0.47076   0.75000   1.000
