# CIF file generated by openbabel 2.4.90, see http://openbabel.sf.net
data_I
_chemical_name_common ''
_cell_length_a 16.401
_cell_length_b 16.425
_cell_length_c 16.079
_cell_angle_alpha 90.014
_cell_angle_beta 89.992
_cell_angle_gamma 119.912
_space_group_name_H-M_alt 'P 1'
_space_group_name_Hall 'P 1'
loop_
    _symmetry_equiv_pos_as_xyz
    x,y,z
loop_
    _atom_site_label
    _atom_site_type_symbol
    _atom_site_fract_x
    _atom_site_fract_y
    _atom_site_fract_z
    _atom_site_occupancy
    Zr0     Zr   0.73544   0.47076   0.75000   1.000
    Zr1     Zr   0.73584   0.26386   0.75000   1.000
    Zr2     Zr   0.52838   0.26398   0.75000   1.000
    Zr3     Zr   0.26455   0.52927   0.25002   1.000
    Zr4     Zr   0.26416   0.73616   0.24996   1.000
    Zr5     Zr   0.47162   0.73604   0.25002   1.000
    N6      N    0.50000   0.50001   0.50000   1.000
    O7      O    0.48934   0.59719   0.39762   1.000
    O8      O    0.51066   0.40283   0.60239   1.000
    O9      O    0.40317   0.51121   0.39761   1.000
    O10     O    0.59683   0.48881   0.60240   1.000
    N11     N    1.00000   0.50001   0.00001   1.000
    O12     O    0.89201   0.48878   0.89761   1.000
    O13     O    0.10773   0.59725   0.10238   1.000
    O14     O    0.10799   0.51124   0.10241   1.000
    O15     O    0.89226   0.40277   0.89762   1.000
    N16     N    0.50000   0.00001   0.00001   1.000
    O17     O    0.40295   0.89236   0.10239   1.000
    O18     O    0.51079   0.10773   0.89761   1.000
    O19     O    0.59705   0.10766   0.89761   1.000
    O20     O    0.48921   0.89229   0.10241   1.000
    N21     N    0.50000   0.00001   0.50001   1.000
    O22     O    0.48916   0.89228   0.39761   1.000
    O23     O    0.59709   0.10765   0.60241   1.000
    O24     O    0.51083   0.10775   0.60241   1.000
    O25     O    0.40291   0.89237   0.39760   1.000
    N26     N    1.00000   0.50001   0.50001   1.000
    O27     O    0.10773   0.59728   0.39760   1.000
    O28     O    0.10799   0.51128   0.39760   1.000
    O29     O    0.89227   0.40275   0.60240   1.000
    O30     O    0.89200   0.48875   0.60242   1.000
    N31     N    0.50000   0.50001   1.00000   1.000
    O32     O    0.59682   0.48880   0.89759   1.000
    O33     O    0.51064   0.40282   0.89761   1.000
    O34     O    0.40318   0.51122   0.10242   1.000
    O35     O    0.48935   0.59720   0.10240   1.000
    N36     N    0.33347   0.66722   0.25000   1.000
    O37     O    0.31624   0.63273   0.25001   1.000
    O38     O    0.36800   0.68442   0.25001   1.000
    O39     O    0.31614   0.68445   0.24999   1.000
    N40     N    0.66653   0.33281   0.75002   1.000
    O41     O    0.68376   0.36729   0.75001   1.000
    O42     O    0.63199   0.31560   0.75001   1.000
    O43     O    0.68386   0.31557   0.75001   1.000
loop_
    _geom_bond_atom_site_label_1
    _geom_bond_atom_site_label_2
    _geom_bond_distance
    _geom_bond_site_symmetry_2
    _ccdc_geom_bond_type
    N6     O7        2.35964      .   S
    Zr5    O7        3.40326      .   S
    N6     O8        2.35975      .   S
    Zr2    O8        3.40339      .   S
    N6     O9        2.35769      .   S
    Zr3    O9        3.40029      .   S
    N6     O10       2.35780      .   S
    Zr0    O10       3.40041      .   S
    N11    O12       2.35729  1_554   S
    Zr0    O12       3.39965      .   S
    N11    O13       2.35955  1_655   S
    Zr4    O13       3.40287      .   S
    N11    O14       2.35726  1_655   S
    Zr3    O14       3.39968      .   S
    N11    O15       2.35972  1_554   S
    Zr1    O15       3.40336      .   S
    N16    O17       2.35875  1_545   S
    Zr4    O17       3.40159      .   S
    N16    O18       2.35828  1_554   S
    Zr2    O18       3.40104      .   S
    N16    O19       2.35888  1_554   S
    Zr1    O19       3.40207      .   S
    N16    O20       2.35832  1_545   S
    Zr5    O20       3.40106      .   S
    N21    O22       2.35768  1_545   S
    Zr5    O22       3.40005      .   S
    N21    O23       2.35875      .   S
    Zr1    O23       3.40130      .   S
    N21    O24       2.35769      .   S
    Zr2    O24       3.40004      .   S
    N21    O25       2.35890  1_545   S
    Zr4    O25       3.40180      .   S
    N26    O27       2.36020  1_655   S
    Zr4    O27       3.40381      .   S
    N26    O28       2.35697  1_655   S
    Zr3    O28       3.39906      .   S
    N26    O29       2.36003      .   S
    Zr1    O29       3.40332      .   S
    N26    O30       2.35697      .   S
    Zr0    O30       3.39906      .   S
    N31    O32       2.35736      .   S
    Zr0    O32       3.39989      .   S
    N31    O33       2.35916      .   S
    Zr2    O33       3.40253      .   S
    N31    O34       2.35754  1_556   S
    Zr3    O34       3.40001      .   S
    N31    O35       2.35930  1_556   S
    Zr5    O35       3.40268      .   S
    N36    O37       0.49100      .   S
    Zr3    O37       1.47301      .   S
    N36    O38       0.49100      .   S
    Zr5    O38       1.47299      .   S
    N36    O39       0.49105      .   S
    Zr4    O39       1.47314      .   S
    N40    O41       0.49100      .   S
    Zr0    O41       1.47301      .   S
    N40    O42       0.49100      .   S
    Zr2    O42       1.47299      .   S
    N40    O43       0.49104      .   S
    Zr1    O43       1.47313      .   S
