# CIF file generated by openbabel 2.4.90, see http://openbabel.sf.net
data_I
_chemical_name_common ''
_cell_length_a 12.513
_cell_length_b 14.768
_cell_length_c 14.758
_cell_angle_alpha 120.039
_cell_angle_beta 90.035
_cell_angle_gamma 90.047
_space_group_name_H-M_alt 'P 1'
_space_group_name_Hall 'P 1'
loop_
    _symmetry_equiv_pos_as_xyz
    x,y,z
loop_
    _atom_site_label
    _atom_site_type_symbol
    _atom_site_fract_x
    _atom_site_fract_y
    _atom_site_fract_z
    _atom_site_occupancy
    N0      N    0.83273   0.49174   0.74581   1.000
    N1      N    0.16714   0.25404   0.50832   1.000
    N2      N    0.49991   0.25130   0.74866   1.000
    N3      N    0.83266   0.50831   0.25358   1.000
    N4      N    0.16651   0.74629   0.49182   1.000
    N5      N    0.49996   0.74823   0.25158   1.000
    Zr6     Zr   0.49964   0.50022   0.49948   1.000
    Zr7     Zr   0.83329   0.00041   0.50042   1.000
    Zr8     Zr   0.16665   0.49946   0.99971   1.000
    O9      O    0.26410   0.57422   0.07556   1.000
    O10     O    0.73583   0.92447   0.42561   1.000
    O11     O    0.59713   0.50314   0.42589   1.000
    O12     O    0.40198   0.57376   0.49671   1.000
    O13     O    0.59721   0.49726   0.57319   1.000
    O14     O    0.40232   0.42653   0.50258   1.000
    O15     O    0.26408   0.42485   0.92410   1.000
    O16     O    0.73582   0.07595   0.57507   1.000
    O17     O    0.06873   0.50275   0.07616   1.000
    O18     O    0.06875   0.49650   0.92325   1.000
    O19     O    0.93100   0.92391   0.49721   1.000
    O20     O    0.93116   0.07679   0.50343   1.000
loop_
    _geom_bond_atom_site_label_1
    _geom_bond_atom_site_label_2
    _geom_bond_distance
    _geom_bond_site_symmetry_2
    _ccdc_geom_bond_type
    N5     O9        3.91869      .   S
    Zr8    O9        1.64861  1_556   S
    N5     O10       3.92011      .   S
    Zr7    O10       1.64938  1_545   S
    Zr6    O11       1.64850      .   S
    N3     O11       3.91946      .   S
    Zr6    O12       1.64963      .   S
    N4     O12       3.92109      .   S
    Zr6    O13       1.64973      .   S
    N0     O13       3.92186      .   S
    Zr6    O14       1.64838      .   S
    N1     O14       3.91921      .   S
    N2     O15       3.91906      .   S
    Zr8    O15       1.64878      .   S
    N2     O16       3.91951      .   S
    Zr7    O16       1.64902      .   S
    N3     O17       3.92215  1_655   S
    Zr8    O17       1.65025  1_556   S
    Zr8    O18       1.65068      .   S
    N0     O18       3.92302  1_655   S
    Zr7    O19       1.64987  1_545   S
    N4     O19       3.92110  1_455   S
    Zr7    O20       1.64970      .   S
    N1     O20       3.92104  1_455   S
