# CIF file generated by openbabel 2.4.90, see http://openbabel.sf.net
data_I
_chemical_name_common ''
_cell_length_a 12.513
_cell_length_b 14.768
_cell_length_c 14.758
_cell_angle_alpha 120.039
_cell_angle_beta 90.035
_cell_angle_gamma 90.047
_space_group_name_H-M_alt 'P 1'
_space_group_name_Hall 'P 1'
loop_
    _symmetry_equiv_pos_as_xyz
    x,y,z
loop_
    _atom_site_label
    _atom_site_type_symbol
    _atom_site_fract_x
    _atom_site_fract_y
    _atom_site_fract_z
    _atom_site_occupancy
    N0      N    0.83273   0.49174   0.74581   1.000
    N1      N    0.16714   0.25404   0.50832   1.000
    N2      N    0.49991   0.25130   0.74866   1.000
    N3      N    0.83266   0.50831   0.25358   1.000
    N4      N    0.16651   0.74629   0.49182   1.000
    N5      N    0.49996   0.74823   0.25158   1.000
    Zr6     Zr   0.49964   0.50022   0.49948   1.000
    O7      O    0.59507   0.49285   0.41855   1.000
    O8      O    0.59918   0.51343   0.43323   1.000
    O9      O    0.39971   0.56630   0.48650   1.000
    O10     O    0.40424   0.58121   0.50692   1.000
    O11     O    0.59516   0.50753   0.58056   1.000
    O12     O    0.40439   0.41913   0.49232   1.000
    O13     O    0.40025   0.43393   0.51284   1.000
    O14     O    0.59925   0.48699   0.56582   1.000
    Zr15    Zr   0.83329   0.00041   0.50042   1.000
    O16     O    0.73786   0.07304   0.58245   1.000
    O17     O    0.73378   0.07887   0.56768   1.000
    O18     O    0.92869   0.92663   0.50740   1.000
    O19     O    0.93332   0.92119   0.48702   1.000
    O20     O    0.93349   0.07953   0.51363   1.000
    O21     O    0.92883   0.07405   0.49323   1.000
    O22     O    0.73379   0.92156   0.43300   1.000
    O23     O    0.73787   0.92738   0.41823   1.000
    Zr24    Zr   0.16665   0.49946   0.99971   1.000
    O25     O    0.26203   0.41750   0.92703   1.000
    O26     O    0.26613   0.43221   0.92116   1.000
    O27     O    0.07103   0.49257   0.07344   1.000
    O28     O    0.06643   0.51293   0.07888   1.000
    O29     O    0.26206   0.58158   0.07262   1.000
    O30     O    0.07108   0.50669   0.92599   1.000
    O31     O    0.06642   0.48631   0.92050   1.000
    O32     O    0.26614   0.56687   0.07850   1.000
loop_
    _geom_bond_atom_site_label_1
    _geom_bond_atom_site_label_2
    _geom_bond_distance
    _geom_bond_site_symmetry_2
    _ccdc_geom_bond_type
    Zr6    O7        1.65407      .   S
    N3     O7        3.92204      .   S
    Zr6    O8        1.65444      .   S
    N3     O8        3.92173      .   S
    Zr6    O9        1.65583      .   S
    N4     O9        3.92307      .   S
    Zr6    O10       1.65492      .   S
    N4     O10       3.92396      .   S
    Zr6    O11       1.65542      .   S
    N0     O11       3.92440      .   S
    Zr6    O12       1.65428      .   S
    N1     O12       3.92154      .   S
    Zr6    O13       1.65397      .   S
    N1     O13       3.92172      .   S
    Zr6    O14       1.65553      .   S
    N0     O14       3.92416      .   S
    Zr15   O16       1.65702      .   S
    N2     O16       3.92037      .   S
    Zr15   O17       1.65255      .   S
    N2     O17       3.92350      .   S
    Zr15   O18       1.65436  1_545   S
    N4     O18       3.92456  1_455   S
    Zr15   O19       1.65690  1_545   S
    N4     O19       3.92250  1_455   S
    Zr15   O20       1.65663      .   S
    N1     O20       3.92252  1_455   S
    Zr15   O21       1.65428      .   S
    N1     O21       3.92441  1_455   S
    Zr15   O22       1.65299  1_545   S
    N5     O22       3.92406      .   S
    Zr15   O23       1.65729  1_545   S
    N5     O23       3.92101      .   S
    Zr24   O25       1.65657      .   S
    N2     O25       3.92008      .   S
    Zr24   O26       1.65252      .   S
    N2     O26       3.92289      .   S
    Zr24   O27       1.65467  1_556   S
    N3     O27       3.92568  1_655   S
    Zr24   O28       1.65734  1_556   S
    N3     O28       3.92346  1_655   S
    Zr24   O29       1.65637  1_556   S
    N5     O29       3.91971      .   S
    Zr24   O30       1.65529      .   S
    N0     O30       3.92634  1_655   S
    Zr24   O31       1.65756      .   S
    N0     O31       3.92455  1_655   S
    Zr24   O32       1.65239  1_556   S
    N5     O32       3.92253      .   S
