# CIF file generated by openbabel 2.4.90, see http://openbabel.sf.net
data_I
_chemical_name_common ''
_cell_length_a 18.067
_cell_length_b 20.611
_cell_length_c 18.888
_cell_angle_alpha 89.978
_cell_angle_beta 89.993
_cell_angle_gamma 90.027
_space_group_name_H-M_alt 'P 1'
_space_group_name_Hall 'P 1'
loop_
    _symmetry_equiv_pos_as_xyz
    x,y,z
loop_
    _atom_site_label
    _atom_site_type_symbol
    _atom_site_fract_x
    _atom_site_fract_y
    _atom_site_fract_z
    _atom_site_occupancy
    H0      H    0.40988   0.47233   0.53340   1.000
    H1      H    0.40988   0.97234   0.53349   1.000
    H2      H    0.90988   0.47233   0.53349   1.000
    H3      H    0.90989   0.97234   0.53340   1.000
    H4      H    0.11831   0.19026   0.39223   1.000
    H5      H    0.11831   0.69027   0.39223   1.000
    H6      H    0.61832   0.19026   0.39223   1.000
    H7      H    0.61832   0.69027   0.39223   1.000
    H8      H    0.41734   0.15262   0.26264   1.000
    H9      H    0.41734   0.65263   0.26264   1.000
    H10     H    0.91735   0.15262   0.26264   1.000
    H11     H    0.91735   0.65263   0.26264   1.000
    H12     H    0.35877   0.09832   0.30900   1.000
    H13     H    0.35877   0.59832   0.30900   1.000
    H14     H    0.85878   0.09832   0.30900   1.000
    H15     H    0.85878   0.59832   0.30900   1.000
    H16     H    0.48765   0.34159   0.70758   1.000
    H17     H    0.48765   0.84160   0.70758   1.000
    H18     H    0.98766   0.34159   0.70758   1.000
    H19     H    0.98766   0.84160   0.70758   1.000
    H20     H    0.42532   0.26323   0.78953   1.000
    H21     H    0.42532   0.76324   0.78953   1.000
    H22     H    0.92533   0.26323   0.78953   1.000
    H23     H    0.92533   0.76324   0.78953   1.000
    H24     H    0.29986   0.40978   0.88048   1.000
    H25     H    0.29986   0.90979   0.88048   1.000
    H26     H    0.79987   0.40978   0.88048   1.000
    H27     H    0.79987   0.90979   0.88040   1.000
    H28     H    0.35644   0.49377   0.79987   1.000
    H29     H    0.35644   0.99377   0.79987   1.000
    H30     H    0.85645   0.49377   0.79987   1.000
    H31     H    0.85645   0.99378   0.79988   1.000
    H32     H    0.15989   0.02764   0.46646   1.000
    H33     H    0.15990   0.52764   0.46646   1.000
    H34     H    0.65990   0.02764   0.46646   1.000
    H35     H    0.65990   0.52764   0.46646   1.000
    H36     H    0.36823   0.30981   0.60768   1.000
    H37     H    0.36823   0.80982   0.60768   1.000
    H38     H    0.86824   0.30981   0.60768   1.000
    H39     H    0.86824   0.80982   0.60768   1.000
    H40     H    0.16730   0.34737   0.73734   1.000
    H41     H    0.16730   0.84738   0.73734   1.000
    H42     H    0.66731   0.34737   0.73734   1.000
    H43     H    0.66731   0.84738   0.73734   1.000
    H44     H    0.10875   0.40166   0.69100   1.000
    H45     H    0.10875   0.90167   0.69100   1.000
    H46     H    0.60876   0.40166   0.69100   1.000
    H47     H    0.60876   0.90167   0.69100   1.000
    H48     H    0.23758   0.15847   0.29246   1.000
    H49     H    0.23758   0.65847   0.29246   1.000
    H50     H    0.73759   0.15847   0.29246   1.000
    H51     H    0.73759   0.65847   0.29246   1.000
    H52     H    0.17525   0.23682   0.21050   1.000
    H53     H    0.17525   0.73683   0.21050   1.000
    H54     H    0.67526   0.23682   0.21050   1.000
    H55     H    0.67526   0.73683   0.21059   1.000
    H56     H    0.04985   0.09020   0.11951   1.000
    H57     H    0.04985   0.59021   0.11950   1.000
    H58     H    0.54986   0.09020   0.11950   1.000
    H59     H    0.54986   0.59021   0.11952   1.000
    H60     H    0.10641   0.00623   0.20007   1.000
    H61     H    0.10641   0.50624   0.20007   1.000
    H62     H    0.60641   0.00623   0.20007   1.000
    H63     H    0.60642   0.50624   0.20007   1.000
    H64     H    0.40959   0.27752   0.03367   1.000
    H65     H    0.40959   0.77753   0.03367   1.000
    H66     H    0.90960   0.27752   0.03360   1.000
    H67     H    0.90960   0.77753   0.03367   1.000
    H68     H    0.11850   0.06016   0.89249   1.000
    H69     H    0.11850   0.56017   0.89249   1.000
    H70     H    0.61851   0.06017   0.89249   1.000
    H71     H    0.61851   0.56017   0.89249   1.000
    H72     H    0.41745   0.09733   0.76285   1.000
    H73     H    0.41745   0.59733   0.76285   1.000
    H74     H    0.91746   0.09733   0.76285   1.000
    H75     H    0.91746   0.59733   0.76285   1.000
    H76     H    0.35878   0.15153   0.80915   1.000
    H77     H    0.35878   0.65154   0.80915   1.000
    H78     H    0.85879   0.15153   0.80915   1.000
    H79     H    0.85879   0.65154   0.80915   1.000
    H80     H    0.48778   0.40847   0.20768   1.000
    H81     H    0.48778   0.90848   0.20768   1.000
    H82     H    0.98779   0.40847   0.20768   1.000
    H83     H    0.98779   0.90848   0.20768   1.000
    C84     C    0.71021   0.88150   0.64454   1.000
    C85     C    0.20564   0.42157   0.58373   1.000
    C86     C    0.20564   0.92158   0.58373   1.000
    C87     C    0.70565   0.42157   0.58373   1.000
    H88     H    0.42550   0.48677   0.28959   1.000
    H89     H    0.42550   0.98678   0.28959   1.000
    H90     H    0.92550   0.48677   0.28959   1.000
    H91     H    0.92551   0.98678   0.28959   1.000
    H92     H    0.29992   0.34013   0.38057   1.000
    H93     H    0.29993   0.84014   0.38057   1.000
    H94     H    0.79993   0.34013   0.38056   1.000
    H95     H    0.79993   0.84014   0.38056   1.000
    H96     H    0.35645   0.25621   0.29997   1.000
    H97     H    0.35645   0.75622   0.29997   1.000
    H98     H    0.85646   0.25621   0.29997   1.000
    H99     H    0.85646   0.75622   0.29997   1.000
    H100    H    0.15959   0.22245   0.96635   1.000
    H101    H    0.15959   0.72245   0.96635   1.000
    H102    H    0.65960   0.22244   0.96630   1.000
    H103    H    0.65960   0.72245   0.96635   1.000
    H104    H    0.36862   0.43991   0.10744   1.000
    H105    H    0.36863   0.93991   0.10744   1.000
    H106    H    0.86863   0.43991   0.10744   1.000
    H107    H    0.86863   0.93992   0.10744   1.000
    H108    H    0.16748   0.40272   0.23710   1.000
    H109    H    0.16748   0.90273   0.23710   1.000
    H110    H    0.66748   0.40272   0.23710   1.000
    H111    H    0.66749   0.90273   0.23710   1.000
    H112    H    0.10881   0.34848   0.19079   1.000
    H113    H    0.10881   0.84849   0.19079   1.000
    H114    H    0.60881   0.34848   0.19079   1.000
    H115    H    0.60882   0.84849   0.19079   1.000
    C116    C    0.44634   0.39179   0.24530   1.000
    C117    C    0.44634   0.89180   0.24530   1.000
    C118    C    0.94635   0.39179   0.24500   1.000
    C119    C    0.94635   0.89180   0.24530   1.000
    C120    C    0.42663   0.32625   0.24784   1.000
    H121    H    0.23764   0.09156   0.79236   1.000
    H122    H    0.23765   0.59156   0.79236   1.000
    H123    H    0.73766   0.09156   0.79236   1.000
    H124    H    0.73766   0.59156   0.79236   1.000
    H125    H    0.17538   0.01323   0.71041   1.000
    H126    H    0.17538   0.51324   0.71041   1.000
    H127    H    0.67539   0.01323   0.71041   1.000
    H128    H    0.67539   0.51324   0.71041   1.000
    H129    H    0.04998   0.15983   0.61937   1.000
    H130    H    0.04998   0.65983   0.61937   1.000
    H131    H    0.54998   0.15983   0.61937   1.000
    H132    H    0.54999   0.65983   0.61937   1.000
    H133    H    0.10649   0.24377   0.69999   1.000
    H134    H    0.10649   0.74378   0.69999   1.000
    H135    H    0.60650   0.24377   0.69999   1.000
    H136    H    0.60650   0.74378   0.69999   1.000
    C137    C    0.43523   0.01045   0.50198   1.000
    C138    C    0.43524   0.51046   0.50198   1.000
    C139    C    0.93524   0.01045   0.50198   1.000
    C140    C    0.93525   0.51046   0.50198   1.000
    C141    C    0.07166   0.15731   0.40038   1.000
    C142    C    0.07166   0.65732   0.40038   1.000
    C143    C    0.57167   0.15731   0.40038   1.000
    C144    C    0.57167   0.65732   0.40038   1.000
    C145    C    0.46025   0.11852   0.35542   1.000
    C146    C    0.46025   0.61853   0.35542   1.000
    C147    C    0.96026   0.11852   0.35542   1.000
    C148    C    0.96026   0.61853   0.35542   1.000
    C149    C    0.45568   0.07843   0.41623   1.000
    C150    C    0.45568   0.57844   0.41623   1.000
    C151    C    0.95569   0.07843   0.41623   1.000
    C152    C    0.95569   0.57844   0.41623   1.000
    C153    C    0.01393   0.08276   0.46540   1.000
    C154    C    0.01393   0.58277   0.46543   1.000
    C155    C    0.51394   0.08276   0.46540   1.000
    C156    C    0.51394   0.58277   0.46540   1.000
    C157    C    0.46175   0.47231   0.69829   1.000
    C158    C    0.46175   0.97232   0.69829   1.000
    C159    C    0.96176   0.47231   0.69829   1.000
    C160    C    0.96176   0.97231   0.69829   1.000
    C161    C    0.44624   0.35824   0.74522   1.000
    C162    C    0.44624   0.85825   0.74520   1.000
    C163    C    0.94625   0.35824   0.74520   1.000
    C164    C    0.94625   0.85825   0.74522   1.000
    C165    C    0.42659   0.42378   0.74777   1.000
    C166    C    0.42659   0.92378   0.74777   1.000
    C167    C    0.92660   0.42378   0.74777   1.000
    C168    C    0.92660   0.92378   0.74777   1.000
    C169    C    0.41181   0.31477   0.79051   1.000
    C170    C    0.41182   0.81478   0.79051   1.000
    C171    C    0.91182   0.31477   0.79051   1.000
    C172    C    0.91182   0.81478   0.79051   1.000
    C173    C    0.34114   0.39691   0.84087   1.000
    C174    C    0.34114   0.89692   0.84087   1.000
    C175    C    0.84115   0.39691   0.84087   1.000
    C176    C    0.84116   0.89692   0.84087   1.000
    C177    C    0.37272   0.44303   0.79654   1.000
    C178    C    0.37272   0.94303   0.79654   1.000
    C179    C    0.87273   0.44303   0.79654   1.000
    C180    C    0.87274   0.94304   0.79654   1.000
    C181    C    0.18523   0.48952   0.49797   1.000
    C182    C    0.18523   0.98953   0.49797   1.000
    C183    C    0.68524   0.48952   0.49797   1.000
    C184    C    0.68524   0.98953   0.49797   1.000
    C185    C    0.32159   0.34273   0.59954   1.000
    C186    C    0.32159   0.84274   0.59954   1.000
    C187    C    0.82160   0.34273   0.59954   1.000
    C188    C    0.82160   0.84274   0.59954   1.000
    C189    C    0.21020   0.38149   0.64454   1.000
    C190    C    0.21020   0.88150   0.64454   1.000
    C191    C    0.71021   0.38149   0.64454   1.000
    N192    N    0.32370   0.87160   0.03979   1.000
    N193    N    0.82371   0.37159   0.03979   1.000
    N194    N    0.82371   0.87160   0.03979   1.000
    N195    N    0.15569   0.28186   0.05917   1.000
    N196    N    0.15569   0.78187   0.05917   1.000
    N197    N    0.65570   0.28186   0.05917   1.000
    N198    N    0.65570   0.78187   0.05917   1.000
    N199    N    0.27025   0.40784   0.15057   1.000
    C200    C    0.70565   0.92158   0.58373   1.000
    C201    C    0.26387   0.41724   0.53449   1.000
    C202    C    0.26388   0.91725   0.53449   1.000
    C203    C    0.76388   0.41724   0.53449   1.000
    C204    C    0.76389   0.91725   0.53449   1.000
    C205    C    0.21167   0.02771   0.30169   1.000
    C206    C    0.21167   0.52771   0.30169   1.000
    C207    C    0.71168   0.02771   0.30169   1.000
    C208    C    0.71168   0.52771   0.30160   1.000
    C209    C    0.19618   0.14180   0.25482   1.000
    C210    C    0.19618   0.64181   0.25482   1.000
    C211    C    0.69619   0.14180   0.25482   1.000
    C212    C    0.69619   0.64181   0.25482   1.000
    C213    C    0.17654   0.07625   0.25223   1.000
    C214    C    0.17655   0.57625   0.25222   1.000
    C215    C    0.67655   0.07625   0.25220   1.000
    C216    C    0.67656   0.57625   0.25222   1.000
    C217    C    0.16175   0.18527   0.20956   1.000
    C218    C    0.16175   0.68527   0.20956   1.000
    C219    C    0.66176   0.18527   0.20956   1.000
    C220    C    0.66176   0.68527   0.20956   1.000
    C221    C    0.09112   0.10309   0.15914   1.000
    C222    C    0.09112   0.60310   0.15914   1.000
    C223    C    0.59112   0.10309   0.15914   1.000
    C224    C    0.59112   0.60310   0.15914   1.000
    C225    C    0.12269   0.05698   0.20344   1.000
    C226    C    0.12269   0.55699   0.20344   1.000
    C227    C    0.62270   0.05698   0.20344   1.000
    C228    C    0.62270   0.55699   0.20344   1.000
    C229    C    0.43501   0.23945   0.00000   1.000
    C230    C    0.43501   0.73946   0.00000   1.000
    C231    C    0.93502   0.23945   0.00000   1.000
    C232    C    0.93502   0.73946   0.00000   1.000
    C233    C    0.07174   0.09296   0.90060   1.000
    C234    C    0.07175   0.59297   0.90063   1.000
    C235    C    0.57175   0.09296   0.90063   1.000
    C236    C    0.57176   0.59297   0.90063   1.000
    C237    C    0.46027   0.13151   0.85563   1.000
    C238    C    0.46027   0.63151   0.85563   1.000
    C239    C    0.96028   0.13150   0.85563   1.000
    C240    C    0.96028   0.63151   0.85563   1.000
    C241    C    0.45560   0.17158   0.91641   1.000
    C242    C    0.45560   0.67158   0.91641   1.000
    C243    C    0.95561   0.17158   0.91641   1.000
    C244    C    0.95561   0.67158   0.91641   1.000
    C245    C    0.01380   0.16731   0.96566   1.000
    C246    C    0.01381   0.66732   0.96566   1.000
    C247    C    0.51381   0.16731   0.96566   1.000
    C248    C    0.51382   0.66732   0.96566   1.000
    C249    C    0.46169   0.27774   0.19832   1.000
    C250    C    0.46169   0.77775   0.19832   1.000
    C251    C    0.96170   0.27774   0.19833   1.000
    C252    C    0.96170   0.77775   0.19830   1.000
    C253    C    0.42663   0.82626   0.24784   1.000
    C254    C    0.92665   0.32625   0.24785   1.000
    C255    C    0.92665   0.82626   0.24784   1.000
    C256    C    0.41194   0.43522   0.29058   1.000
    C257    C    0.41194   0.93523   0.29058   1.000
    C258    C    0.91195   0.43523   0.29058   1.000
    C259    C    0.91195   0.93523   0.29058   1.000
    C260    C    0.34121   0.35304   0.34095   1.000
    C261    C    0.34121   0.85305   0.34095   1.000
    C262    C    0.84122   0.35305   0.34090   1.000
    C263    C    0.84122   0.85305   0.34090   1.000
    C264    C    0.37276   0.30696   0.29660   1.000
    C265    C    0.37276   0.80697   0.29663   1.000
    C266    C    0.87276   0.30696   0.29662   1.000
    C267    C    0.87277   0.80697   0.29662   1.000
    C268    C    0.18503   0.26053   0.99785   1.000
    C269    C    0.18503   0.76054   0.99785   1.000
    C270    C    0.68504   0.26053   0.99785   1.000
    C271    C    0.68504   0.76054   0.99785   1.000
    C272    C    0.32185   0.40709   0.09931   1.000
    C273    C    0.32185   0.90710   0.09931   1.000
    C274    C    0.82186   0.40709   0.09931   1.000
    C275    C    0.82186   0.90710   0.09931   1.000
    C276    C    0.21032   0.36853   0.14433   1.000
    C277    C    0.21033   0.86854   0.14433   1.000
    C278    C    0.71033   0.36853   0.14433   1.000
    C279    C    0.71034   0.86854   0.14433   1.000
    C280    C    0.20564   0.32844   0.08356   1.000
    C281    C    0.20565   0.82845   0.08356   1.000
    C282    C    0.70565   0.32844   0.08356   1.000
    C283    C    0.70565   0.82845   0.08356   1.000
    C284    C    0.26388   0.33271   0.03432   1.000
    C285    C    0.26388   0.83271   0.03432   1.000
    C286    C    0.76389   0.33271   0.03432   1.000
    C287    C    0.76389   0.83271   0.03432   1.000
    C288    C    0.21167   0.22227   0.80166   1.000
    C289    C    0.21168   0.72228   0.80166   1.000
    C290    C    0.71169   0.22227   0.80166   1.000
    C291    C    0.71168   0.72228   0.80166   1.000
    C292    C    0.19626   0.10822   0.75471   1.000
    C293    C    0.19626   0.60822   0.75471   1.000
    C294    C    0.69626   0.10822   0.75471   1.000
    C295    C    0.69627   0.60823   0.75470   1.000
    C296    C    0.17660   0.17375   0.75210   1.000
    C297    C    0.17661   0.67376   0.75214   1.000
    C298    C    0.67662   0.17376   0.75214   1.000
    C299    C    0.67661   0.67376   0.75215   1.000
    C300    C    0.16186   0.06477   0.70941   1.000
    C301    C    0.16187   0.56478   0.70941   1.000
    C302    C    0.66187   0.06477   0.70941   1.000
    C303    C    0.66188   0.56478   0.70941   1.000
    C304    C    0.09123   0.14693   0.65901   1.000
    C305    C    0.09123   0.64694   0.65901   1.000
    C306    C    0.59123   0.14693   0.65901   1.000
    C307    C    0.59124   0.64694   0.65901   1.000
    C308    C    0.12278   0.19303   0.70334   1.000
    C309    C    0.12277   0.69304   0.70330   1.000
    C310    C    0.62277   0.19303   0.70335   1.000
    C311    C    0.62279   0.69304   0.70334   1.000
    N312    N    0.99989   0.03937   0.51963   1.000
    N313    N    0.99989   0.53938   0.51963   1.000
    N314    N    0.49989   0.03937   0.51963   1.000
    N315    N    0.49990   0.53938   0.51963   1.000
    N316    N    0.07364   0.12176   0.45989   1.000
    N317    N    0.07364   0.62177   0.45989   1.000
    N318    N    0.57365   0.12176   0.45989   1.000
    N319    N    0.57365   0.62177   0.45989   1.000
    N320    N    0.40582   0.03177   0.44068   1.000
    N321    N    0.40582   0.53178   0.44068   1.000
    N322    N    0.90583   0.03177   0.44068   1.000
    N323    N    0.90583   0.53178   0.44068   1.000
    N324    N    0.02005   0.15796   0.34914   1.000
    N325    N    0.02005   0.65797   0.34914   1.000
    N326    N    0.52006   0.15796   0.34914   1.000
    N327    N    0.52006   0.65797   0.34914   1.000
    N328    N    0.41003   0.11858   0.30185   1.000
    N329    N    0.41004   0.61859   0.30185   1.000
    N330    N    0.91004   0.11858   0.30185   1.000
    N331    N    0.91004   0.61859   0.30185   1.000
    N332    N    0.36027   0.33367   0.83795   1.000
    N333    N    0.36027   0.83368   0.83795   1.000
    N334    N    0.86028   0.33367   0.83795   1.000
    N335    N    0.86028   0.83368   0.83795   1.000
    N336    N    0.24985   0.46061   0.48029   1.000
    N337    N    0.24986   0.96062   0.48029   1.000
    N338    N    0.74986   0.46061   0.48029   1.000
    N339    N    0.74986   0.96062   0.48029   1.000
    N340    N    0.32357   0.37826   0.54001   1.000
    N341    N    0.32357   0.87827   0.54001   1.000
    N342    N    0.82358   0.37826   0.54001   1.000
    N343    N    0.82358   0.87827   0.54001   1.000
    N344    N    0.15581   0.46822   0.55929   1.000
    N345    N    0.15581   0.96822   0.55929   1.000
    N346    N    0.65582   0.46822   0.55929   1.000
    N347    N    0.65582   0.96822   0.55929   1.000
    N348    N    0.26999   0.34208   0.65080   1.000
    N349    N    0.26999   0.84209   0.65080   1.000
    N350    N    0.77000   0.34208   0.65080   1.000
    N351    N    0.77000   0.84208   0.65080   1.000
    N352    N    0.16000   0.38141   0.69813   1.000
    N353    N    0.16000   0.88142   0.69813   1.000
    N354    N    0.66001   0.38141   0.69813   1.000
    N355    N    0.66001   0.88142   0.69813   1.000
    N356    N    0.11023   0.16635   0.16200   1.000
    N357    N    0.11023   0.66636   0.16209   1.000
    N358    N    0.61023   0.16635   0.16200   1.000
    N359    N    0.61024   0.66636   0.16209   1.000
    N360    N    0.99967   0.21062   0.01987   1.000
    N361    N    0.99967   0.71063   0.01987   1.000
    N362    N    0.49968   0.21062   0.01987   1.000
    N363    N    0.49968   0.71063   0.01987   1.000
    N364    N    0.07360   0.12845   0.96017   1.000
    N365    N    0.07360   0.62845   0.96010   1.000
    N366    N    0.57361   0.12845   0.96010   1.000
    N367    N    0.57361   0.62845   0.96016   1.000
    N368    N    0.40567   0.21814   0.94083   1.000
    N369    N    0.40567   0.71814   0.94083   1.000
    N370    N    0.90568   0.21814   0.94083   1.000
    N371    N    0.90568   0.71814   0.94083   1.000
    N372    N    0.02016   0.09222   0.84937   1.000
    N373    N    0.02016   0.59223   0.84937   1.000
    N374    N    0.52017   0.09222   0.84937   1.000
    N375    N    0.52017   0.59223   0.84937   1.000
    N376    N    0.41005   0.13130   0.80207   1.000
    N377    N    0.41005   0.63131   0.80207   1.000
    N378    N    0.91006   0.13130   0.80207   1.000
    N379    N    0.91006   0.63131   0.80207   1.000
    N380    N    0.36036   0.41630   0.33801   1.000
    N381    N    0.36036   0.91631   0.33801   1.000
    N382    N    0.86037   0.41630   0.33800   1.000
    N383    N    0.86037   0.91631   0.33801   1.000
    N384    N    0.24972   0.28937   0.98010   1.000
    N385    N    0.24972   0.78938   0.98010   1.000
    N386    N    0.74973   0.28937   0.98013   1.000
    N387    N    0.74973   0.78938   0.98010   1.000
    N388    N    0.32370   0.37159   0.03979   1.000
    N389    N    0.27026   0.90784   0.15057   1.000
    N390    N    0.77026   0.40784   0.15057   1.000
    N391    N    0.77026   0.90784   0.15057   1.000
    N392    N    0.16008   0.36873   0.19788   1.000
    N393    N    0.16009   0.86874   0.19788   1.000
    N394    N    0.66009   0.36873   0.19788   1.000
    N395    N    0.66009   0.86874   0.19788   1.000
    N396    N    0.11034   0.08369   0.66195   1.000
    N397    N    0.11035   0.58370   0.66190   1.000
    N398    N    0.61036   0.08369   0.66194   1.000
    N399    N    0.61035   0.58370   0.66195   1.000
    O400    O    0.01890   0.45004   0.66379   1.000
    O401    O    0.01890   0.95005   0.66379   1.000
    O402    O    0.51891   0.45004   0.66379   1.000
    O403    O    0.51891   0.95004   0.66370   1.000
    O404    O    0.43544   0.02771   0.69178   1.000
    O405    O    0.43545   0.52772   0.69178   1.000
    O406    O    0.93545   0.02771   0.69178   1.000
    O407    O    0.93545   0.52772   0.69178   1.000
    O408    O    0.26888   0.04995   0.33616   1.000
    O409    O    0.26888   0.54996   0.33616   1.000
    O410    O    0.76889   0.04995   0.33616   1.000
    O411    O    0.76889   0.54996   0.33616   1.000
    O412    O    0.18528   0.47232   0.30821   1.000
    O413    O    0.18528   0.97232   0.30820   1.000
    O414    O    0.68528   0.47232   0.30821   1.000
    O415    O    0.68529   0.97232   0.30820   1.000
    O416    O    0.01890   0.29999   0.16384   1.000
    O417    O    0.01890   0.80000   0.16380   1.000
    O418    O    0.51891   0.29999   0.16385   1.000
    O419    O    0.51892   0.79999   0.16385   1.000
    O420    O    0.43521   0.22238   0.19176   1.000
    O421    O    0.43521   0.72239   0.19176   1.000
    O422    O    0.93522   0.22239   0.19175   1.000
    O423    O    0.93522   0.72239   0.19170   1.000
    O424    O    0.26889   0.20004   0.83612   1.000
    O425    O    0.26889   0.70004   0.83612   1.000
    O426    O    0.76889   0.20003   0.83613   1.000
    O427    O    0.76890   0.70004   0.83612   1.000
    O428    O    0.18524   0.27762   0.80823   1.000
    O429    O    0.18524   0.77763   0.80823   1.000
    O430    O    0.68525   0.27762   0.80823   1.000
    O431    O    0.68526   0.77763   0.80823   1.000
loop_
    _geom_bond_atom_site_label_1
    _geom_bond_atom_site_label_2
    _geom_bond_distance
    _geom_bond_site_symmetry_2
    _ccdc_geom_bond_type
    C232   N361      1.36345      .   S
    C232   H67       1.10975      .   S
    C232   N371      1.31277  1_554   S
    C231   N360      1.36345      .   S
    C231   H66       1.10900      .   S
    C231   N370      1.31277  1_554   S
    C230   N363      1.36373      .   S
    C230   H65       1.10977      .   S
    C230   N369      1.31276  1_554   S
    C229   N362      1.36373      .   S
    C229   H64       1.10976      .   S
    C229   N368      1.31276  1_554   S
    N360   C245      1.38248  1_654   S
    N361   C246      1.38247  1_654   S
    N362   C247      1.38247  1_554   S
    N363   C248      1.38245  1_554   S
    C284   N388      1.34915      .   S
    C284   C280      1.40687      .   S
    C284   N384      1.38289  1_554   S
    C285   N192      1.34915      .   S
    C285   C281      1.40687      .   S
    C285   N385      1.38289  1_554   S
    C286   N193      1.34916      .   S
    C286   C282      1.40687      .   S
    C286   N386      1.38248  1_554   S
    C287   N194      1.34916      .   S
    C287   C283      1.40687      .   S
    C287   N387      1.38289  1_554   S
    N388   C272      1.34204      .   S
    N192   C273      1.34205      .   S
    N193   C274      1.34205      .   S
    N194   C275      1.34204      .   S
    N196   C281      1.39578      .   S
    N196   C269      1.34767  1_554   S
    N197   C282      1.39580      .   S
    N197   C270      1.34767  1_554   S
    N198   C283      1.39577      .   S
    N198   C271      1.34765  1_554   S
    N195   C280      1.39578      .   S
    N195   C268      1.34767  1_554   S
    C280   C276      1.41706      .   S
    C281   C277      1.41707      .   S
    C282   C278      1.41707      .   S
    C283   C279      1.41707      .   S
    C275   H107      1.09303      .   S
    C275   N391      1.34404      .   S
    C274   H106      1.09301      .   S
    C274   N390      1.34405      .   S
    C273   H105      1.09303      .   S
    C273   N389      1.34404      .   S
    C272   H104      1.09301      .   S
    C272   N199      1.34406      .   S
    H58    C223      1.08957      .   S
    H57    C222      1.08956      .   S
    H56    C221      1.08944      .   S
    H59    C224      1.08931      .   S
    C276   N199      1.35710      .   S
    C276   N392      1.35896      .   S
    C279   N391      1.35710      .   S
    C279   N395      1.35896      .   S
    C278   N390      1.35710      .   S
    C278   N394      1.35894      .   S
    C277   N389      1.35708      .   S
    C277   N393      1.35896      .   S
    C224   N359      1.34976      .   S
    C224   C228      1.38888      .   S
    C223   N358      1.34969      .   S
    C223   C227      1.38889      .   S
    C222   N357      1.34977      .   S
    C222   C226      1.38889      .   S
    C221   N356      1.34970      .   S
    C221   C225      1.38890      .   S
    N358   C219      1.35117      .   S
    N356   C217      1.35117      .   S
    N359   C220      1.34994      .   S
    N357   C218      1.35000      .   S
    O417   C252      1.30466  1_455   S
    O416   C251      1.30454  1_455   S
    O418   C249      1.30468      .   S
    O419   C250      1.30470      .   S
    H115   N395      1.02477      .   S
    H114   N394      1.02476      .   S
    H113   N393      1.02477      .   S
    H112   N392      1.02476      .   S
    O423   C252      1.24331      .   S
    O422   C251      1.24326      .   S
    O421   C250      1.24322      .   S
    O420   C249      1.24323      .   S
    N395   H111      1.02839      .   S
    N394   H110      1.02840      .   S
    N393   H109      1.02839      .   S
    N392   H108      1.02840      .   S
    C252   C255      1.50907      .   S
    C249   C120      1.50885      .   S
    C250   C253      1.50883      .   S
    C251   C254      1.50883      .   S
    H60    C225      1.08837      .   S
    H61    C226      1.08835      .   S
    H62    C227      1.08837      .   S
    H63    C228      1.08838      .   S
    C225   C213      1.39774      .   S
    C226   C214      1.39772      .   S
    C227   C215      1.39742      .   S
    C228   C216      1.39778      .   S
    H83    C119      1.08775      .   S
    H82    C118      1.08407      .   S
    H81    C117      1.08770      .   S
    H80    C116      1.08770      .   S
    C220   H55       1.09031      .   S
    C220   C212      1.38573      .   S
    C219   H54       1.09026      .   S
    C219   C211      1.38574      .   S
    C218   H53       1.09028      .   S
    C218   C210      1.38574      .   S
    C217   H52       1.09026      .   S
    C217   C209      1.38575      .   S
    C118   C254      1.39790      .   S
    C118   C258      1.38916      .   S
    C119   C255      1.39768      .   S
    C119   C259      1.38566      .   S
    C117   C253      1.39769      .   S
    C117   C257      1.38568      .   S
    C116   C120      1.39768      .   S
    C116   C256      1.38566      .   S
    C120   C264      1.39743      .   S
    C253   C265      1.39778      .   S
    C255   C267      1.39773      .   S
    C254   C266      1.39764      .   S
    C215   C211      1.39770      .   S
    C215   C207      1.50915      .   S
    C216   C212      1.39768      .   S
    C216   C208      1.50783      .   S
    C214   C210      1.39767      .   S
    C214   C206      1.50890      .   S
    C213   C209      1.39769      .   S
    C213   C205      1.50880      .   S
    C210   H49       1.08765      .   S
    C212   H51       1.08768      .   S
    C211   H50       1.08762      .   S
    C209   H48       1.08760      .   S
    H11    N331      1.02842      .   S
    H8     N328      1.02842      .   S
    H9     N329      1.02842      .   S
    H10    N330      1.02842      .   S
    H91    C259      1.09030      .   S
    H90    C258      1.09028      .   S
    H89    C257      1.09030      .   S
    H88    C256      1.09030      .   S
    C258   N382      1.34983      .   S
    C259   N383      1.34996      .   S
    C257   N381      1.35001      .   S
    C256   N380      1.34998      .   S
    C264   H96       1.08840      .   S
    C264   C260      1.38920      .   S
    C267   H99       1.08838      .   S
    C267   C263      1.38838      .   S
    C266   H98       1.08837      .   S
    C266   C262      1.38838      .   S
    C265   H97       1.08837      .   S
    C265   C261      1.38886      .   S
    C208   O414      1.24338      .   S
    C208   O411      1.30557      .   S
    C207   O415      1.24290  1_545   S
    C207   O410      1.30479      .   S
    C206   O412      1.24321      .   S
    C206   O409      1.30477      .   S
    C205   O413      1.24288  1_545   S
    C205   O408      1.30481      .   S
    N328   H12       1.02479      .   S
    N328   C145      1.35906      .   S
    N329   H13       1.02478      .   S
    N329   C146      1.35904      .   S
    N330   H14       1.02481      .   S
    N330   C147      1.35904      .   S
    N331   H15       1.02478      .   S
    N331   C148      1.35906      .   S
    N382   C262      1.34975      .   S
    N381   C261      1.34980      .   S
    N383   C263      1.34976      .   S
    N380   C260      1.34978      .   S
    C262   H94       1.08994      .   S
    C263   H95       1.08993      .   S
    C260   H92       1.08941      .   S
    C261   H93       1.08940      .   S
    N325   C148      1.35681  1_455   S
    N325   C142      1.34409      .   S
    N326   C145      1.35707      .   S
    N326   C143      1.34409      .   S
    N327   C146      1.35708      .   S
    N327   C144      1.34409      .   S
    N324   C147      1.35681  1_455   S
    N324   C141      1.34409      .   S
    C145   C149      1.41703      .   S
    C148   C152      1.41703      .   S
    C147   C151      1.41703      .   S
    C146   C150      1.41703      .   S
    H7     C144      1.09299      .   S
    H6     C143      1.09300      .   S
    H5     C142      1.09299      .   S
    H4     C141      1.09299      .   S
    C142   N317      1.34198      .   S
    C143   N318      1.34198      .   S
    C144   N319      1.34199      .   S
    C141   N316      1.34199      .   S
    C149   N320      1.39575      .   S
    C149   C155      1.40663      .   S
    C150   N321      1.39575      .   S
    C150   C156      1.40663      .   S
    C151   N322      1.39575      .   S
    C151   C153      1.40638  1_655   S
    C152   N323      1.39574      .   S
    C152   C154      1.40676  1_655   S
    N320   C137      1.34764      .   S
    N321   C138      1.34764      .   S
    N322   C139      1.34764      .   S
    N323   C140      1.34764      .   S
    N317   C154      1.34919      .   S
    N319   C156      1.34915      .   S
    N318   C155      1.34915      .   S
    N316   C153      1.34915      .   S
    C155   N314      1.38288      .   S
    C156   N315      1.38288      .   S
    C153   N312      1.38288  1_455   S
    C154   N313      1.38246  1_455   S
    H33    C181      1.08676      .   S
    H35    C183      1.08676      .   S
    H34    C184      1.08657  1_545   S
    H32    C182      1.08658  1_545   S
    N338   C183      1.35298      .   S
    N338   C203      1.38232      .   S
    N337   C182      1.35299      .   S
    N337   C202      1.38233      .   S
    N336   C181      1.35298      .   S
    N336   C201      1.38232      .   S
    N339   C184      1.35300      .   S
    N339   C204      1.38233      .   S
    C181   N344      1.34759      .   S
    C182   N345      1.34759      .   S
    C183   N346      1.34759      .   S
    C184   N347      1.34758      .   S
    C137   N314      1.35301      .   S
    C137   H1        1.08651  1_545   S
    C138   N315      1.35301      .   S
    C138   H0        1.08582      .   S
    C139   N312      1.35273      .   S
    C139   H3        1.08557  1_545   S
    C140   N313      1.35272      .   S
    C140   H2        1.08676      .   S
    C203   N342      1.34920      .   S
    C203   C87       1.40711      .   S
    C204   N343      1.34919      .   S
    C204   C200      1.40711      .   S
    C202   N341      1.34919      .   S
    C202   C86       1.40711      .   S
    C201   N340      1.34919      .   S
    C201   C85       1.40711      .   S
    N340   C185      1.34203      .   S
    N341   C186      1.34202      .   S
    N342   C187      1.34202      .   S
    N343   C188      1.34203      .   S
    N344   C85       1.39580      .   S
    N345   C86       1.39580      .   S
    N347   C200      1.39580      .   S
    N346   C87       1.39581      .   S
    C200   C84       1.41699      .   S
    C87    C191      1.41698      .   S
    C86    C190      1.41699      .   S
    C85    C189      1.41699      .   S
    C185   H36       1.09300      .   S
    C185   N348      1.34399      .   S
    C186   H37       1.09301      .   S
    C186   N349      1.34399      .   S
    C187   H38       1.09301      .   S
    C187   N350      1.34399      .   S
    C188   H39       1.09301      .   S
    C188   N351      1.34399      .   S
    H130   C305      1.08941      .   S
    H131   C306      1.08941      .   S
    H132   C307      1.08940      .   S
    H129   C304      1.08940      .   S
    C191   N350      1.35706      .   S
    C191   N354      1.35904      .   S
    C189   N348      1.35707      .   S
    C189   N352      1.35904      .   S
    C190   N349      1.35705      .   S
    C190   N353      1.35904      .   S
    C84    N351      1.35707      .   S
    C84    N355      1.35904      .   S
    C307   N399      1.34974      .   S
    C307   C311      1.38884      .   S
    C306   N398      1.34975      .   S
    C306   C310      1.38890      .   S
    C305   N397      1.34971      .   S
    C305   C309      1.38835      .   S
    C304   N396      1.34975      .   S
    C304   C308      1.38884      .   S
    N397   C301      1.35052      .   S
    N398   C302      1.34997      .   S
    N399   C303      1.34995      .   S
    N396   C300      1.34993      .   S
    O403   C158      1.30556      .   S
    O400   C159      1.30446  1_455   S
    O401   C160      1.30451  1_455   S
    O402   C157      1.30474      .   S
    H44    N352      1.02475      .   S
    H47    N355      1.02475      .   S
    H46    N354      1.02476      .   S
    H45    N353      1.02476      .   S
    O407   C159      1.24319      .   S
    O404   C158      1.24294  1_545   S
    O405   C157      1.24322      .   S
    O406   C160      1.24296  1_545   S
    N353   H41       1.02844      .   S
    N354   H42       1.02845      .   S
    N355   H43       1.02845      .   S
    N352   H40       1.02844      .   S
    C158   C166      1.50867      .   S
    C160   C168      1.50868      .   S
    C159   C167      1.50870      .   S
    C157   C165      1.50868      .   S
    H136   C311      1.08837      .   S
    H135   C310      1.08837      .   S
    H134   C309      1.08834      .   S
    H133   C308      1.08836      .   S
    C309   C297      1.39820      .   S
    C311   C299      1.39774      .   S
    C308   C296      1.39713      .   S
    C310   C298      1.39769      .   S
    H16    C161      1.08771      .   S
    H19    C164      1.08769      .   S
    H18    C163      1.08749      .   S
    H17    C162      1.08750      .   S
    C302   H127      1.09031      .   S
    C302   C294      1.38568      .   S
    C301   H126      1.09029      .   S
    C301   C293      1.38570      .   S
    C300   H125      1.09029      .   S
    C300   C292      1.38573      .   S
    C303   H128      1.09029      .   S
    C303   C295      1.38562      .   S
    C162   C166      1.39768      .   S
    C162   C170      1.38582      .   S
    C163   C167      1.39767      .   S
    C163   C171      1.38582      .   S
    C161   C165      1.39767      .   S
    C161   C169      1.38561      .   S
    C164   C168      1.39766      .   S
    C164   C172      1.38563      .   S
    C167   C179      1.39770      .   S
    C168   C180      1.39761      .   S
    C166   C178      1.39772      .   S
    C165   C177      1.39767      .   S
    C296   C292      1.39770      .   S
    C296   C288      1.50927      .   S
    C298   C294      1.39767      .   S
    C298   C290      1.50879      .   S
    C297   C293      1.39769      .   S
    C297   C289      1.50880      .   S
    C299   C295      1.39765      .   S
    C299   C291      1.50869      .   S
    C295   H124      1.08776      .   S
    C294   H123      1.08776      .   S
    C293   H122      1.08768      .   S
    C292   H121      1.08763      .   S
    H73    N377      1.02830      .   S
    H74    N378      1.02830      .   S
    H75    N379      1.02830      .   S
    H72    N376      1.02830      .   S
    H23    C172      1.09030      .   S
    H22    C171      1.09030      .   S
    H21    C170      1.09030      .   S
    H20    C169      1.09030      .   S
    C172   N335      1.34996      .   S
    C171   N334      1.34992      .   S
    C170   N333      1.34991      .   S
    C169   N332      1.34994      .   S
    C179   H30       1.08837      .   S
    C179   C175      1.38885      .   S
    C180   H31       1.08839      .   S
    C180   C176      1.38888      .   S
    C177   H28       1.08836      .   S
    C177   C173      1.38887      .   S
    C178   H29       1.08837      .   S
    C178   C174      1.38885      .   S
    C288   O428      1.24322      .   S
    C288   O424      1.30481      .   S
    C289   O429      1.24322      .   S
    C289   O425      1.30475      .   S
    C290   O430      1.24323      .   S
    C290   O426      1.30477      .   S
    C291   O431      1.24323      .   S
    C291   O427      1.30481      .   S
    N379   H79       1.02476      .   S
    N379   C240      1.35902      .   S
    N378   H78       1.02476      .   S
    N378   C239      1.35902      .   S
    N377   H77       1.02476      .   S
    N377   C238      1.35902      .   S
    N376   H76       1.02476      .   S
    N376   C237      1.35901      .   S
    N332   C173      1.34974      .   S
    N333   C174      1.34973      .   S
    N334   C175      1.34974      .   S
    N335   C176      1.34974      .   S
    C174   H25       1.08937      .   S
    C173   H24       1.08935      .   S
    C176   H27       1.08831      .   S
    C175   H26       1.08936      .   S
    N372   C239      1.35682  1_455   S
    N372   C233      1.34361      .   S
    N373   C240      1.35682  1_455   S
    N373   C234      1.34402      .   S
    N374   C237      1.35709      .   S
    N374   C235      1.34402      .   S
    N375   C238      1.35708      .   S
    N375   C236      1.34402      .   S
    C239   C243      1.41702      .   S
    C237   C241      1.41701      .   S
    C238   C242      1.41701      .   S
    C240   C244      1.41701      .   S
    H68    C233      1.09293      .   S
    H69    C234      1.09301      .   S
    H70    C235      1.09301      .   S
    H71    C236      1.09301      .   S
    C233   N364      1.34261      .   S
    C234   N365      1.34102      .   S
    C235   N366      1.34102      .   S
    C236   N367      1.34197      .   S
    C241   N368      1.39587      .   S
    C241   C247      1.40699      .   S
    C242   N369      1.39586      .   S
    C242   C248      1.40699      .   S
    C243   N370      1.39586      .   S
    C243   C245      1.40675  1_655   S
    C244   N371      1.39586      .   S
    C244   C246      1.40675  1_655   S
    N365   C246      1.34927      .   S
    N366   C247      1.34927      .   S
    N367   C248      1.34919      .   S
    N364   C245      1.34915      .   S
    H102   C270      1.08749      .   S
    H100   C268      1.08696      .   S
    H101   C269      1.08696      .   S
    H103   C271      1.08697      .   S
    N387   C271      1.35316      .   S
    N385   C269      1.35317      .   S
    N384   C268      1.35317      .   S
    N386   C270      1.35303      .   S
