# CIF file generated by openbabel 2.4.90, see http://openbabel.sf.net
data_I
_chemical_name_common ''
_cell_length_a 20.994
_cell_length_b 18.038
_cell_length_c 18.041
_cell_angle_alpha 120.021
_cell_angle_beta 90.005
_cell_angle_gamma 89.982
_space_group_name_H-M_alt 'P 1'
_space_group_name_Hall 'P 1'
loop_
    _symmetry_equiv_pos_as_xyz
    x,y,z
loop_
    _atom_site_label
    _atom_site_type_symbol
    _atom_site_fract_x
    _atom_site_fract_y
    _atom_site_fract_z
    _atom_site_occupancy
    Zn0     Zn   0.86678   0.47367   0.54992   1.000
    Zn1     Zn   0.20010   0.07632   0.52630   1.000
    Zn2     Zn   0.70011   0.07632   0.52639   1.000
    Zn3     Zn   0.03345   0.45006   0.92375   1.000
    Zn4     Zn   0.53346   0.45006   0.92375   1.000
    Zn5     Zn   0.11678   0.52639   0.45010   1.000
    Zn6     Zn   0.61679   0.52639   0.45011   1.000
    Zn7     Zn   0.45012   0.92369   0.47365   1.000
    Zn8     Zn   0.95013   0.92369   0.47360   1.000
    Zn9     Zn   0.28344   0.54992   0.07623   1.000
    Zn10    Zn   0.78345   0.54992   0.07623   1.000
    Zn11    Zn   0.36678   0.47367   0.54992   1.000
    Br12    Br   0.38014   0.32343   0.45712   1.000
    Br13    Br   0.88015   0.32343   0.45712   1.000
    Br14    Br   0.21336   0.13402   0.67660   1.000
    Br15    Br   0.71337   0.13402   0.67661   1.000
    Br16    Br   0.04671   0.54261   0.86609   1.000
    Br17    Br   0.54672   0.54261   0.86609   1.000
    Br18    Br   0.13010   0.67662   0.54287   1.000
    Br19    Br   0.63011   0.67662   0.54287   1.000
    Br20    Br   0.46335   0.86597   0.32343   1.000
    Br21    Br   0.96336   0.86596   0.32343   1.000
    Br22    Br   0.29677   0.45733   0.13383   1.000
    Br23    Br   0.79678   0.45733   0.13380   1.000
loop_
    _geom_bond_atom_site_label_1
    _geom_bond_atom_site_label_2
    _geom_bond_distance
    _geom_bond_site_symmetry_2
    _ccdc_geom_bond_type
    Zn10   Br23      2.38366      .   S
    Zn9    Br22      2.38409      .   S
    Br21   Zn8       2.38296      .   S
    Br20   Zn7       2.38379      .   S
    Zn5    Br18      2.38433      .   S
    Zn6    Br19      2.38430      .   S
    Br12   Zn11      2.38433      .   S
    Br13   Zn0       2.38434      .   S
    Zn1    Br14      2.38523      .   S
    Zn2    Br15      2.38391      .   S
    Br16   Zn3       2.38432      .   S
    Br17   Zn4       2.38432      .   S
