# CIF file generated by openbabel 2.4.90, see http://openbabel.sf.net
data_I
_chemical_name_common ''
_cell_length_a 20.994
_cell_length_b 18.038
_cell_length_c 18.041
_cell_angle_alpha 120.021
_cell_angle_beta 90.005
_cell_angle_gamma 89.982
_space_group_name_H-M_alt 'P 1'
_space_group_name_Hall 'P 1'
loop_
    _symmetry_equiv_pos_as_xyz
    x,y,z
loop_
    _atom_site_label
    _atom_site_type_symbol
    _atom_site_fract_x
    _atom_site_fract_y
    _atom_site_fract_z
    _atom_site_occupancy
    N0      N    0.87171   0.62176   0.46438   1.000
    N1      N    0.37170   0.62176   0.46438   1.000
    N2      N    0.95497   0.15734   0.62153   1.000
    N3      N    0.28833   0.46417   0.84255   1.000
    N4      N    0.78835   0.46417   0.84255   1.000
    N5      N    0.20501   0.84267   0.37849   1.000
    N6      N    0.70502   0.84267   0.37849   1.000
    N7      N    0.53835   0.53583   0.15739   1.000
    N8      N    0.03834   0.53583   0.15741   1.000
    N9      N    0.45500   0.15734   0.62151   1.000
    N10     N    0.62172   0.37830   0.53563   1.000
    N11     N    0.12171   0.37830   0.53563   1.000
    Zr12    Zr   0.37346   0.39855   0.50352   1.000
    O13     O    0.34791   0.43954   0.61595   1.000
    O14     O    0.44638   0.41516   0.52740   1.000
    Zr15    Zr   0.87347   0.39855   0.50352   1.000
    O16     O    0.94638   0.41516   0.52740   1.000
    O17     O    0.84792   0.43954   0.61595   1.000
    Zr18    Zr   0.12344   0.60150   0.49649   1.000
    O19     O    0.09791   0.56050   0.38405   1.000
    O20     O    0.19636   0.58489   0.47261   1.000
    Zr21    Zr   0.29011   0.50362   0.10503   1.000
    O22     O    0.36302   0.52751   0.11228   1.000
    O23     O    0.26457   0.61603   0.17646   1.000
    Zr24    Zr   0.45674   0.89483   0.39854   1.000
    O25     O    0.43124   0.82354   0.43962   1.000
    O26     O    0.52968   0.88766   0.41521   1.000
    Zr27    Zr   0.20673   0.10517   0.60145   1.000
    O28     O    0.27966   0.11235   0.58478   1.000
    O29     O    0.18124   0.17648   0.56038   1.000
    Zr30    Zr   0.79012   0.50362   0.10502   1.000
    O31     O    0.76458   0.61603   0.17646   1.000
    O32     O    0.86302   0.52751   0.11228   1.000
    Zr33    Zr   0.62345   0.60150   0.49649   1.000
    O34     O    0.59792   0.56050   0.38405   1.000
    O35     O    0.69637   0.58489   0.47262   1.000
    Zr36    Zr   0.04008   0.49633   0.89492   1.000
    O37     O    0.11301   0.47246   0.88767   1.000
    O38     O    0.01456   0.38394   0.82351   1.000
    Zr39    Zr   0.70674   0.10517   0.60150   1.000
    O40     O    0.68125   0.17648   0.56042   1.000
    O41     O    0.77966   0.11235   0.58482   1.000
    Zr42    Zr   0.54009   0.49633   0.89492   1.000
    O43     O    0.51457   0.38394   0.82351   1.000
    O44     O    0.61302   0.47246   0.88767   1.000
    Zr45    Zr   0.95675   0.89483   0.39852   1.000
    O46     O    0.93125   0.82354   0.43960   1.000
    O47     O    0.02968   0.88766   0.41519   1.000
    O48     O    0.44886   0.97871   0.47970   1.000
    O49     O    0.03221   0.49903   0.97878   1.000
    O50     O    0.86558   0.47979   0.50096   1.000
    O51     O    0.19886   0.02130   0.52028   1.000
    O52     O    0.36557   0.47979   0.50096   1.000
    O53     O    0.94886   0.97871   0.47969   1.000
    O54     O    0.53221   0.49903   0.97878   1.000
    O55     O    0.28221   0.50095   0.02117   1.000
    O56     O    0.69887   0.02130   0.52031   1.000
    O57     O    0.61557   0.52027   0.49905   1.000
    O58     O    0.11556   0.52027   0.49905   1.000
    O59     O    0.78222   0.50095   0.02117   1.000
loop_
    _geom_bond_atom_site_label_1
    _geom_bond_atom_site_label_2
    _geom_bond_distance
    _geom_bond_site_symmetry_2
    _ccdc_geom_bond_type
    Zr12   O13       1.85675      .   S
    N3     O13       4.08147      .   S
    Zr12   O14       1.57795      .   S
    N10    O14       3.75674      .   S
    Zr15   O16       1.57783      .   S
    N11    O16       3.75642  1_455   S
    Zr15   O17       1.85674      .   S
    N4     O17       4.08145      .   S
    Zr18   O19       1.85676      .   S
    N8     O19       4.08163      .   S
    Zr18   O20       1.57790      .   S
    N1     O20       3.75703      .   S
    Zr21   O22       1.57795      .   S
    N7     O22       3.75653      .   S
    Zr21   O23       1.85587      .   S
    N5     O23       4.08025      .   S
    Zr24   O25       1.85560      .   S
    N1     O25       4.07909      .   S
    Zr24   O26       1.57818      .   S
    N6     O26       3.75627      .   S
    Zr27   O28       1.57815      .   S
    N9     O28       3.75658      .   S
    Zr27   O29       1.85557      .   S
    N11    O29       4.07888      .   S
    Zr30   O31       1.85588      .   S
    N6     O31       4.08027      .   S
    Zr30   O32       1.57784      .   S
    N8     O32       3.75634  1_455   S
    Zr33   O34       1.85684      .   S
    N7     O34       4.08187      .   S
    Zr33   O35       1.57791      .   S
    N0     O35       3.75705      .   S
    Zr36   O37       1.57790      .   S
    N3     O37       3.75659      .   S
    Zr36   O38       1.85576      .   S
    N2     O38       4.08033  1_655   S
    Zr39   O40       1.85574      .   S
    N10    O40       4.07922      .   S
    Zr39   O41       1.57794      .   S
    N2     O41       3.75585      .   S
    Zr42   O43       1.85574      .   S
    N9     O43       4.08033      .   S
    Zr42   O44       1.57792      .   S
    N4     O44       3.75663      .   S
    Zr45   O46       1.85568      .   S
    N0     O46       4.07928      .   S
    Zr45   O47       1.57805  1_655   S
    N5     O47       3.75596      .   S
    N9     O48       2.94884  1_545   S
    Zr24   O48       1.49790      .   S
    Zr36   O49       1.49846      .   S
    N8     O49       2.94978  1_554   S
    Zr15   O50       1.49818      .   S
    N0     O50       2.94984      .   S
    Zr27   O51       1.49792      .   S
    N5     O51       2.94863  1_565   S
    Zr12   O52       1.49818      .   S
    N1     O52       2.94985      .   S
    Zr45   O53       1.49804      .   S
    N2     O53       2.94903  1_545   S
    Zr42   O54       1.49840      .   S
    N7     O54       2.94961  1_554   S
    Zr21   O55       1.49846      .   S
    N3     O55       2.94993  1_556   S
    N6     O56       2.94882  1_565   S
    Zr39   O56       1.49808      .   S
    N10    O57       2.94968      .   S
    Zr33   O57       1.49825      .   S
    Zr18   O58       1.49825      .   S
    N11    O58       2.94969      .   S
    N4     O59       2.94981  1_556   S
    Zr30   O59       1.49832      .   S
