# CIF file generated by openbabel 2.4.90, see http://openbabel.sf.net
data_I
_chemical_name_common ''
_cell_length_a 20.994
_cell_length_b 18.038
_cell_length_c 18.041
_cell_angle_alpha 120.021
_cell_angle_beta 90.005
_cell_angle_gamma 89.982
_space_group_name_H-M_alt 'P 1'
_space_group_name_Hall 'P 1'
loop_
    _symmetry_equiv_pos_as_xyz
    x,y,z
loop_
    _atom_site_label
    _atom_site_type_symbol
    _atom_site_fract_x
    _atom_site_fract_y
    _atom_site_fract_z
    _atom_site_occupancy
    N0      N    0.87171   0.62176   0.46438   1.000
    N1      N    0.37170   0.62176   0.46438   1.000
    N2      N    0.95497   0.15734   0.62153   1.000
    N3      N    0.28833   0.46417   0.84255   1.000
    N4      N    0.78835   0.46417   0.84255   1.000
    N5      N    0.20501   0.84267   0.37849   1.000
    N6      N    0.70502   0.84267   0.37849   1.000
    N7      N    0.53835   0.53583   0.15739   1.000
    N8      N    0.03834   0.53583   0.15741   1.000
    N9      N    0.45500   0.15734   0.62151   1.000
    N10     N    0.62172   0.37830   0.53563   1.000
    N11     N    0.12171   0.37830   0.53563   1.000
    Zr12    Zr   0.37346   0.39855   0.50352   1.000
    O13     O    0.34791   0.43954   0.61595   1.000
    O14     O    0.37232   0.48474   0.50053   1.000
    O15     O    0.35881   0.47485   0.50139   1.000
    O16     O    0.44638   0.41516   0.52740   1.000
    Zr17    Zr   0.87347   0.39855   0.50352   1.000
    O18     O    0.94638   0.41516   0.52740   1.000
    O19     O    0.87233   0.48474   0.50053   1.000
    O20     O    0.85882   0.47485   0.50139   1.000
    O21     O    0.84792   0.43954   0.61595   1.000
    Zr22    Zr   0.12344   0.60150   0.49649   1.000
    O23     O    0.09791   0.56050   0.38405   1.000
    O24     O    0.12232   0.51532   0.49948   1.000
    O25     O    0.19636   0.58489   0.47261   1.000
    O26     O    0.10880   0.52521   0.49862   1.000
    Zr27    Zr   0.29011   0.50362   0.10503   1.000
    O28     O    0.36302   0.52751   0.11228   1.000
    O29     O    0.28897   0.50051   0.01580   1.000
    O30     O    0.27546   0.50138   0.02655   1.000
    O31     O    0.26457   0.61603   0.17646   1.000
    Zr32    Zr   0.45674   0.89483   0.39854   1.000
    O33     O    0.44211   0.97333   0.47477   1.000
    O34     O    0.45562   0.98408   0.48464   1.000
    O35     O    0.43124   0.82354   0.43962   1.000
    O36     O    0.52968   0.88766   0.41521   1.000
    Zr37    Zr   0.20673   0.10517   0.60145   1.000
    O38     O    0.19210   0.02667   0.52522   1.000
    O39     O    0.27966   0.11235   0.58478   1.000
    O40     O    0.20562   0.01592   0.51535   1.000
    O41     O    0.18124   0.17648   0.56038   1.000
    Zr42    Zr   0.79012   0.50362   0.10502   1.000
    O43     O    0.76458   0.61603   0.17646   1.000
    O44     O    0.86302   0.52751   0.11228   1.000
    O45     O    0.78898   0.50051   0.01579   1.000
    O46     O    0.77547   0.50139   0.02655   1.000
    Zr47    Zr   0.62345   0.60150   0.49649   1.000
    O48     O    0.60881   0.52521   0.49862   1.000
    O49     O    0.59792   0.56050   0.38405   1.000
    O50     O    0.62233   0.51532   0.49948   1.000
    O51     O    0.69637   0.58489   0.47262   1.000
    Zr52    Zr   0.04008   0.49633   0.89492   1.000
    O53     O    0.02545   0.49859   0.97341   1.000
    O54     O    0.11301   0.47246   0.88767   1.000
    O55     O    0.03896   0.49946   0.98416   1.000
    O56     O    0.01456   0.38394   0.82351   1.000
    Zr57    Zr   0.70674   0.10517   0.60150   1.000
    O58     O    0.69211   0.02667   0.52525   1.000
    O59     O    0.70563   0.01592   0.51538   1.000
    O60     O    0.68125   0.17648   0.56042   1.000
    O61     O    0.77966   0.11235   0.58482   1.000
    Zr62    Zr   0.54009   0.49633   0.89492   1.000
    O63     O    0.51457   0.38394   0.82351   1.000
    O64     O    0.61302   0.47246   0.88767   1.000
    O65     O    0.52546   0.49859   0.97340   1.000
    O66     O    0.53897   0.49946   0.98416   1.000
    Zr67    Zr   0.95675   0.89483   0.39852   1.000
    O68     O    0.93125   0.82354   0.43960   1.000
    O69     O    0.02968   0.88766   0.41519   1.000
    O70     O    0.95562   0.98408   0.48463   1.000
    O71     O    0.94210   0.97333   0.47475   1.000
loop_
    _geom_bond_atom_site_label_1
    _geom_bond_atom_site_label_2
    _geom_bond_distance
    _geom_bond_site_symmetry_2
    _ccdc_geom_bond_type
    Zr12   O13       1.85675      .   S
    N3     O13       4.08147      .   S
    Zr12   O14       1.58248      .   S
    N1     O14       2.85441      .   S
    Zr12   O15       1.42918      .   S
    N1     O15       3.05177      .   S
    Zr12   O16       1.57795      .   S
    N10    O16       3.75674      .   S
    Zr17   O18       1.57783      .   S
    N11    O18       3.75642  1_455   S
    Zr17   O19       1.58248      .   S
    N0     O19       2.85439      .   S
    Zr17   O20       1.42918      .   S
    N0     O20       3.05176      .   S
    Zr17   O21       1.85674      .   S
    N4     O21       4.08145      .   S
    Zr22   O23       1.85676      .   S
    N8     O23       4.08163      .   S
    Zr22   O24       1.58250      .   S
    N11    O24       2.85430      .   S
    Zr22   O25       1.57790      .   S
    N1     O25       3.75703      .   S
    Zr22   O26       1.42930      .   S
    N11    O26       3.05156      .   S
    Zr27   O28       1.57795      .   S
    N7     O28       3.75653      .   S
    Zr27   O29       1.58270      .   S
    N3     O29       2.85456  1_556   S
    Zr27   O30       1.42951      .   S
    N3     O30       3.05178  1_556   S
    Zr27   O31       1.85587      .   S
    N5     O31       4.08025      .   S
    Zr32   O33       1.42896      .   S
    N9     O33       3.05067  1_545   S
    Zr32   O34       1.58214      .   S
    N9     O34       2.85348  1_545   S
    Zr32   O35       1.85560      .   S
    N1     O35       4.07909      .   S
    Zr32   O36       1.57818      .   S
    N6     O36       3.75627      .   S
    Zr37   O38       1.42907      .   S
    N5     O38       3.05039  1_565   S
    Zr37   O39       1.57815      .   S
    N9     O39       3.75658      .   S
    Zr37   O40       1.58207      .   S
    N5     O40       2.85335  1_565   S
    Zr37   O41       1.85557      .   S
    N11    O41       4.07888      .   S
    Zr42   O43       1.85588      .   S
    N6     O43       4.08027      .   S
    Zr42   O44       1.57784      .   S
    N8     O44       3.75634  1_455   S
    Zr42   O45       1.58256      .   S
    N4     O45       2.85443  1_556   S
    Zr42   O46       1.42937      .   S
    N4     O46       3.05166  1_556   S
    Zr47   O48       1.42930      .   S
    N10    O48       3.05155      .   S
    Zr47   O49       1.85684      .   S
    N7     O49       4.08187      .   S
    Zr47   O50       1.58250      .   S
    N10    O50       2.85429      .   S
    Zr47   O51       1.57791      .   S
    N0     O51       3.75705      .   S
    Zr52   O53       1.42947      .   S
    N8     O53       3.05165  1_554   S
    Zr52   O54       1.57790      .   S
    N3     O54       3.75659      .   S
    Zr52   O55       1.58274      .   S
    N8     O55       2.85438  1_554   S
    Zr52   O56       1.85576      .   S
    N2     O56       4.08033  1_655   S
    Zr57   O58       1.42927      .   S
    N6     O58       3.05055  1_565   S
    Zr57   O59       1.58219      .   S
    N6     O59       2.85357  1_565   S
    Zr57   O60       1.85574      .   S
    N10    O60       4.07922      .   S
    Zr57   O61       1.57794      .   S
    N2     O61       3.75585      .   S
    Zr62   O63       1.85574      .   S
    N9     O63       4.08033      .   S
    Zr62   O64       1.57792      .   S
    N4     O64       3.75663      .   S
    Zr62   O65       1.42942      .   S
    N7     O65       3.05148  1_554   S
    Zr62   O66       1.58267      .   S
    N7     O66       2.85421  1_554   S
    Zr67   O68       1.85568      .   S
    N0     O68       4.07928      .   S
    Zr67   O69       1.57805  1_655   S
    N5     O69       3.75596      .   S
    Zr67   O70       1.58226      .   S
    N2     O70       2.85371  1_545   S
    Zr67   O71       1.42913      .   S
    N2     O71       3.05084  1_545   S
