# CIF file generated by openbabel 2.4.90, see http://openbabel.sf.net
data_I
_chemical_name_common ''
_cell_length_a 20.994
_cell_length_b 18.038
_cell_length_c 18.041
_cell_angle_alpha 120.021
_cell_angle_beta 90.005
_cell_angle_gamma 89.982
_space_group_name_H-M_alt 'P 1'
_space_group_name_Hall 'P 1'
loop_
    _symmetry_equiv_pos_as_xyz
    x,y,z
loop_
    _atom_site_label
    _atom_site_type_symbol
    _atom_site_fract_x
    _atom_site_fract_y
    _atom_site_fract_z
    _atom_site_occupancy
    Zr0     Zr   0.36678   0.47367   0.54992   1.000
    Zr1     Zr   0.86678   0.47367   0.54992   1.000
    Zr2     Zr   0.20010   0.07632   0.52630   1.000
    Zr3     Zr   0.70011   0.07632   0.52639   1.000
    Zr4     Zr   0.03345   0.45006   0.92375   1.000
    Zr5     Zr   0.53346   0.45006   0.92375   1.000
    Zr6     Zr   0.11678   0.52639   0.45010   1.000
    Zr7     Zr   0.61679   0.52639   0.45011   1.000
    Zr8     Zr   0.45012   0.92369   0.47365   1.000
    Zr9     Zr   0.95013   0.92369   0.47360   1.000
    Zr10    Zr   0.28344   0.54992   0.07623   1.000
    Zr11    Zr   0.78345   0.54992   0.07623   1.000
    Zr12    Zr   0.38014   0.32343   0.45712   1.000
    Zr13    Zr   0.88015   0.32343   0.45712   1.000
    Zr14    Zr   0.21336   0.13402   0.67660   1.000
    Zr15    Zr   0.71337   0.13402   0.67661   1.000
    Zr16    Zr   0.04671   0.54261   0.86609   1.000
    Zr17    Zr   0.54672   0.54261   0.86609   1.000
    Zr18    Zr   0.13010   0.67662   0.54287   1.000
    Zr19    Zr   0.63011   0.67662   0.54287   1.000
    Zr20    Zr   0.46335   0.86597   0.32343   1.000
    Zr21    Zr   0.96336   0.86596   0.32343   1.000
    Zr22    Zr   0.29677   0.45733   0.13383   1.000
    Zr23    Zr   0.79678   0.45733   0.13380   1.000
    O24     O    0.79012   0.50362   0.10502   1.000
    O25     O    0.29011   0.50362   0.10503   1.000
    O26     O    0.95675   0.89483   0.39852   1.000
    O27     O    0.45674   0.89483   0.39854   1.000
    O28     O    0.12344   0.60150   0.49649   1.000
    O29     O    0.62345   0.60150   0.49649   1.000
    O30     O    0.37346   0.39855   0.50352   1.000
    O31     O    0.87347   0.39855   0.50352   1.000
    O32     O    0.20673   0.10517   0.60145   1.000
    O33     O    0.70674   0.10517   0.60150   1.000
    O34     O    0.04008   0.49633   0.89492   1.000
    O35     O    0.54009   0.49633   0.89492   1.000
    N36     N    0.87171   0.62176   0.46438   1.000
    O37     O    0.87120   0.57093   0.49755   1.000
    O38     O    0.90575   0.75225   0.48068   1.000
    O39     O    0.84417   0.55114   0.49927   1.000
    O40     O    0.76929   0.56828   0.44874   1.000
    N41     N    0.37170   0.62176   0.46438   1.000
    O42     O    0.37119   0.57093   0.49755   1.000
    O43     O    0.40574   0.75225   0.48069   1.000
    O44     O    0.34416   0.55114   0.49926   1.000
    O45     O    0.26928   0.56828   0.44874   1.000
    N46     N    0.95497   0.15734   0.62153   1.000
    O47     O    0.95450   0.07334   0.57075   1.000
    O48     O    0.98904   0.27155   0.75211   1.000
    O49     O    0.92746   0.05184   0.55099   1.000
    O50     O    0.85258   0.11953   0.56815   1.000
    N51     N    0.28833   0.46417   0.84255   1.000
    O52     O    0.28784   0.49740   0.92656   1.000
    O53     O    0.32237   0.48052   0.72837   1.000
    O54     O    0.26081   0.49915   0.94808   1.000
    O55     O    0.18593   0.44859   0.88043   1.000
    N56     N    0.78835   0.46417   0.84255   1.000
    O57     O    0.78785   0.49740   0.92656   1.000
    O58     O    0.82238   0.48052   0.72837   1.000
    O59     O    0.76082   0.49915   0.94808   1.000
    O60     O    0.68594   0.44859   0.88043   1.000
    N61     N    0.20501   0.84267   0.37849   1.000
    O62     O    0.20451   0.92667   0.42925   1.000
    O63     O    0.23904   0.72844   0.24790   1.000
    O64     O    0.17747   0.94818   0.44899   1.000
    O65     O    0.10261   0.88049   0.43186   1.000
    N66     N    0.70502   0.84267   0.37849   1.000
    O67     O    0.70453   0.92667   0.42927   1.000
    O68     O    0.73905   0.72844   0.24790   1.000
    O69     O    0.67748   0.94818   0.44899   1.000
    O70     O    0.60261   0.88049   0.43187   1.000
    N71     N    0.53835   0.53583   0.15739   1.000
    O72     O    0.53785   0.50259   0.07340   1.000
    O73     O    0.57239   0.51950   0.27161   1.000
    O74     O    0.51082   0.50084   0.05188   1.000
    O75     O    0.43593   0.55140   0.11953   1.000
    N76     N    0.03834   0.53583   0.15741   1.000
    O77     O    0.03784   0.50259   0.07341   1.000
    O78     O    0.07238   0.51950   0.27162   1.000
    O79     O    0.01082   0.50084   0.05189   1.000
    O80     O    0.93593   0.55140   0.11954   1.000
    N81     N    0.45500   0.15734   0.62151   1.000
    O82     O    0.45451   0.07334   0.57075   1.000
    O83     O    0.48906   0.27155   0.75209   1.000
    O84     O    0.42748   0.05184   0.55099   1.000
    O85     O    0.35259   0.11953   0.56811   1.000
    N86     N    0.62172   0.37830   0.53563   1.000
    O87     O    0.62121   0.42913   0.50247   1.000
    O88     O    0.65575   0.24779   0.51934   1.000
    O89     O    0.59417   0.44892   0.50076   1.000
    O90     O    0.51930   0.43178   0.55127   1.000
    N91     N    0.12171   0.37830   0.53563   1.000
    O92     O    0.12120   0.42913   0.50247   1.000
    O93     O    0.15574   0.24779   0.51932   1.000
    O94     O    0.09416   0.44892   0.50075   1.000
    O95     O    0.01929   0.43178   0.55127   1.000
loop_
    _geom_bond_atom_site_label_1
    _geom_bond_atom_site_label_2
    _geom_bond_distance
    _geom_bond_site_symmetry_2
    _ccdc_geom_bond_type
    Zr11   O24       1.19183      .   S
    Zr23   O24       1.19183      .   S
    Zr10   O25       1.19205      .   S
    Zr22   O25       1.19205      .   S
    Zr21   O26       1.19148      .   S
    Zr9    O26       1.19148      .   S
    Zr20   O27       1.19189      .   S
    Zr8    O27       1.19189      .   S
    Zr6    O28       1.19216      .   S
    Zr18   O28       1.19216      .   S
    Zr7    O29       1.19215      .   S
    Zr19   O29       1.19215      .   S
    Zr12   O30       1.19216      .   S
    Zr0    O30       1.19216      .   S
    Zr13   O31       1.19217      .   S
    Zr1    O31       1.19217      .   S
    Zr2    O32       1.19261      .   S
    Zr14   O32       1.19261      .   S
    Zr3    O33       1.19195      .   S
    Zr15   O33       1.19195      .   S
    Zr16   O34       1.19216      .   S
    Zr4    O34       1.19216      .   S
    Zr17   O35       1.19216      .   S
    Zr5    O35       1.19216      .   S
    N36    O37       1.32210      .   S
    Zr1    O37       2.37444      .   S
    N36    O38       2.33362      .   S
    Zr9    O38       3.29302      .   S
    N36    O39       1.77650      .   S
    Zr1    O39       2.07141      .   S
    N36    O40       2.31566      .   S
    Zr7    O40       3.29283      .   S
    N41    O42       1.32212      .   S
    Zr0    O42       2.37445      .   S
    N41    O43       2.33353      .   S
    Zr8    O43       3.29269      .   S
    N41    O44       1.77651      .   S
    Zr0    O44       2.07144      .   S
    N41    O45       2.31565      .   S
    Zr6    O45       3.29280      .   S
    N46    O47       1.32147      .   S
    Zr9    O47       2.37345  1_565   S
    N46    O48       2.33441      .   S
    Zr4    O48       3.29399  1_455   S
    N46    O49       1.77536      .   S
    Zr9    O49       2.07102  1_565   S
    N46    O50       2.31447      .   S
    Zr3    O50       3.29152      .   S
    N51    O52       1.32194      .   S
    Zr10   O52       2.37426  1_554   S
    N51    O53       2.33441      .   S
    Zr0    O53       3.29413      .   S
    N51    O54       1.77605      .   S
    Zr10   O54       2.07156  1_554   S
    N51    O55       2.31524      .   S
    Zr4    O55       3.29223      .   S
    N56    O57       1.32195      .   S
    Zr11   O57       2.37427  1_554   S
    N56    O58       2.33439      .   S
    Zr1    O58       3.29410      .   S
    N56    O59       1.77606      .   S
    Zr11   O59       2.07156  1_554   S
    N56    O60       2.31527      .   S
    Zr5    O60       3.29228      .   S
    N61    O62       1.32136      .   S
    Zr2    O62       2.37305  1_545   S
    N61    O63       2.33418      .   S
    Zr10   O63       3.29389      .   S
    N61    O64       1.77515      .   S
    Zr2    O64       2.07084  1_545   S
    N61    O65       2.31442      .   S
    Zr9    O65       3.29141  1_655   S
    N66    O67       1.32141      .   S
    Zr3    O67       2.37326  1_545   S
    N66    O68       2.33416      .   S
    Zr11   O68       3.29387      .   S
    N66    O69       1.77516      .   S
    Zr3    O69       2.07101  1_545   S
    N66    O70       2.31460      .   S
    Zr8    O70       3.29180      .   S
    N71    O72       1.32163      .   S
    Zr5    O72       2.37393  1_556   S
    N71    O73       2.33468      .   S
    Zr7    O73       3.29447      .   S
    N71    O74       1.77582      .   S
    Zr5    O74       2.07118  1_556   S
    N71    O75       2.31517      .   S
    Zr10   O75       3.29217      .   S
    N76    O77       1.32174      .   S
    Zr4    O77       2.37404  1_556   S
    N76    O78       2.33452      .   S
    Zr6    O78       3.29423      .   S
    N76    O79       1.77590      .   S
    Zr4    O79       2.07126  1_556   S
    N76    O80       2.31504  1_455   S
    Zr11   O80       3.29206      .   S
    N81    O82       1.32141      .   S
    Zr8    O82       2.37330  1_565   S
    N81    O83       2.33445      .   S
    Zr5    O83       3.29401      .   S
    N81    O84       1.77542      .   S
    Zr8    O84       2.07080  1_565   S
    N81    O85       2.31496      .   S
    Zr2    O85       3.29209      .   S
    N86    O87       1.32196      .   S
    Zr7    O87       2.37419      .   S
    N86    O88       2.33347      .   S
    Zr3    O88       3.29279      .   S
    N86    O89       1.77617      .   S
    Zr7    O89       2.07141      .   S
    N86    O90       2.31530      .   S
    Zr0    O90       3.29263      .   S
    N91    O92       1.32197      .   S
    Zr6    O92       2.37426      .   S
    N91    O93       2.33333      .   S
    Zr2    O93       3.29218      .   S
    N91    O94       1.77617      .   S
    Zr6    O94       2.07149      .   S
    N91    O95       2.31512      .   S
    Zr1    O95       3.29242  1_655   S
