# CIF file generated by openbabel 2.4.90, see http://openbabel.sf.net
data_I
_chemical_name_common 'ZnH8C15S2NO4'
_cell_length_a 13.959
_cell_length_b 14.282
_cell_length_c 14.294
_cell_angle_alpha 97.176
_cell_angle_beta 106.298
_cell_angle_gamma 106.781
_space_group_name_H-M_alt 'P 1'
_space_group_name_Hall 'P 1'
loop_
    _symmetry_equiv_pos_as_xyz
    x,y,z
loop_
    _atom_site_label
    _atom_site_type_symbol
    _atom_site_fract_x
    _atom_site_fract_y
    _atom_site_fract_z
    _atom_site_occupancy
    Zn0     Zn   0.63956   0.33761   0.62570   1.000
    Zn1     Zn   0.86114   0.37487   0.66216   1.000
    Zn2     Zn   0.36045   0.66238   0.37428   1.000
    Zn3     Zn   0.13887   0.62513   0.33783   1.000
    H4      H    0.34912   0.49344   0.58987   1.000
    H5      H    0.51833   0.98286   0.58353   1.000
    H6      H    0.51885   0.47509   0.58200   1.000
    H7      H    0.52907   0.32081   0.27534   1.000
    H8      H    0.56551   0.33623   0.10566   1.000
    H9      H    0.27900   0.20935   0.67877   1.000
    H10     H    0.55073   0.81198   0.59351   1.000
    H11     H    0.45052   0.20109   0.66221   1.000
    H12     H    0.15260   0.40863   0.50590   1.000
    H13     H    0.98110   0.41549   0.01450   1.000
    H14     H    0.98285   0.41705   0.52395   1.000
    H15     H    0.97233   0.72728   0.67939   1.000
    H16     H    0.93491   0.89622   0.66252   1.000
    H17     H    0.22011   0.32236   0.79049   1.000
    H18     H    0.94927   0.40594   0.18583   1.000
    H19     H    0.04865   0.33926   0.79836   1.000
    H20     H    0.65089   0.50655   0.41011   1.000
    H21     H    0.48168   0.01714   0.41646   1.000
    H22     H    0.48115   0.52491   0.41797   1.000
    H23     H    0.47094   0.67918   0.72464   1.000
    H24     H    0.43450   0.66375   0.89432   1.000
    H25     H    0.72102   0.79066   0.32123   1.000
    H26     H    0.44927   0.18801   0.40647   1.000
    H27     H    0.54949   0.79892   0.33779   1.000
    H28     H    0.84740   0.59136   0.49408   1.000
    H29     H    0.01891   0.58451   0.98549   1.000
    H30     H    0.01715   0.58295   0.47603   1.000
    H31     H    0.02768   0.27272   0.32060   1.000
    H32     H    0.06510   0.10378   0.33747   1.000
    H33     H    0.77990   0.67764   0.20950   1.000
    H34     H    0.05074   0.59406   0.81416   1.000
    H35     H    0.95136   0.66075   0.20163   1.000
    C36     C    0.69461   0.33677   0.34262   1.000
    C37     C    0.70368   0.16252   0.62620   1.000
    C38     C    0.30009   0.35329   0.63702   1.000
    C39     C    0.70739   0.33977   0.44892   1.000
    C40     C    0.72147   0.89402   0.63542   1.000
    C41     C    0.68876   0.05561   0.62419   1.000
    C42     C    0.73022   0.35121   0.18219   1.000
    C43     C    0.36776   0.42727   0.60680   1.000
    C44     C    0.59628   0.97510   0.60325   1.000
    C45     C    0.46217   0.41747   0.60139   1.000
    C46     C    0.60534   0.33003   0.26512   1.000
    C47     C    0.62517   0.33827   0.17468   1.000
    C48     C    0.33004   0.27027   0.65749   1.000
    C49     C    0.61429   0.88350   0.60924   1.000
    C50     C    0.42483   0.26473   0.64825   1.000
    C51     C    0.80677   0.65835   0.66431   1.000
    C52     C    0.79595   0.37282   0.83693   1.000
    C53     C    0.20033   0.36281   0.64636   1.000
    C54     C    0.79428   0.55202   0.66216   1.000
    C55     C    0.77855   0.36379   0.10554   1.000
    C56     C    0.81076   0.37473   0.94360   1.000
    C57     C    0.77022   0.81800   0.64840   1.000
    C58     C    0.13340   0.39243   0.57212   1.000
    C59     C    0.90331   0.39575   0.02314   1.000
    C60     C    0.03895   0.39806   0.58171   1.000
    C61     C    0.89585   0.73667   0.67025   1.000
    C62     C    0.87547   0.82667   0.66117   1.000
    C63     C    0.16967   0.34318   0.72941   1.000
    C64     C    0.88561   0.39001   0.11495   1.000
    C65     C    0.07490   0.35259   0.73472   1.000
    C66     C    0.30539   0.66322   0.65736   1.000
    C67     C    0.29633   0.83748   0.37378   1.000
    C68     C    0.69994   0.64673   0.36300   1.000
    C69     C    0.29262   0.66024   0.55107   1.000
    C70     C    0.27854   0.10598   0.36457   1.000
    C71     C    0.31125   0.94439   0.37579   1.000
    C72     C    0.26979   0.64878   0.81779   1.000
    C73     C    0.63223   0.57271   0.39315   1.000
    C74     C    0.40373   0.02490   0.39674   1.000
    C75     C    0.53784   0.58253   0.39859   1.000
    C76     C    0.39467   0.66996   0.73487   1.000
    C77     C    0.37483   0.66172   0.82530   1.000
    C78     C    0.66996   0.72972   0.34248   1.000
    C79     C    0.38572   0.11650   0.39074   1.000
    C80     C    0.57519   0.73528   0.35176   1.000
    C81     C    0.19324   0.34165   0.33568   1.000
    C82     C    0.20406   0.62718   0.16305   1.000
    C83     C    0.79966   0.63716   0.35361   1.000
    C84     C    0.20573   0.44797   0.33781   1.000
    C85     C    0.22146   0.63620   0.89445   1.000
    C86     C    0.18925   0.62526   0.05638   1.000
    C87     C    0.22979   0.18200   0.35158   1.000
    C88     C    0.86662   0.60759   0.42787   1.000
    C89     C    0.09670   0.60424   0.97685   1.000
    C90     C    0.96105   0.60193   0.41827   1.000
    C91     C    0.10416   0.26332   0.32973   1.000
    C92     C    0.12454   0.17332   0.33882   1.000
    C93     C    0.83035   0.65685   0.27059   1.000
    C94     C    0.11440   0.60999   0.88504   1.000
    C95     C    0.92510   0.64740   0.26526   1.000
    S96     S    0.79919   0.01839   0.65225   1.000
    S97     S    0.80336   0.35139   0.30267   1.000
    S98     S    0.70058   0.34664   0.98195   1.000
    S99     S    0.69754   0.69699   0.64941   1.000
    S100    S    0.20082   0.98161   0.34773   1.000
    S101    S    0.19665   0.64861   0.69732   1.000
    S102    S    0.29943   0.65336   0.01803   1.000
    S103    S    0.30246   0.30301   0.35057   1.000
    N104    N    0.49082   0.33783   0.62178   1.000
    N105    N    0.00965   0.37853   0.66143   1.000
    N106    N    0.50919   0.66216   0.37820   1.000
    N107    N    0.99036   0.62148   0.33856   1.000
    O108    O    0.62081   0.18778   0.60504   1.000
    O109    O    0.62588   0.33235   0.47537   1.000
    O110    O    0.79938   0.22102   0.64936   1.000
    O111    O    0.80071   0.35255   0.50664   1.000
    O112    O    0.87902   0.39452   0.81141   1.000
    O113    O    0.87586   0.52615   0.66953   1.000
    O114    O    0.70041   0.34949   0.77902   1.000
    O115    O    0.70089   0.49369   0.64998   1.000
    O116    O    0.37920   0.81222   0.39494   1.000
    O117    O    0.37413   0.66764   0.52461   1.000
    O118    O    0.20063   0.77898   0.35063   1.000
    O119    O    0.19930   0.64745   0.49334   1.000
    O120    O    0.12098   0.60548   0.18857   1.000
    O121    O    0.12415   0.47385   0.33046   1.000
    O122    O    0.29960   0.65051   0.22096   1.000
    O123    O    0.29912   0.50631   0.35001   1.000
loop_
    _geom_bond_atom_site_label_1
    _geom_bond_atom_site_label_2
    _geom_bond_distance
    _geom_bond_site_symmetry_2
    _ccdc_geom_bond_type
    H13    C59       1.08674      .   S
    S102   C86       1.73168      .   S
    S102   C85       1.73899  1_554   S
    C59    C64       1.40967      .   S
    C59    C56       1.38489  1_554   S
    C86    C82       1.47572      .   S
    C86    C89       1.38490  1_554   S
    C55    C64       1.39394      .   S
    C55    C42       1.44303      .   S
    C55    S98       1.73898  1_554   S
    H8     C47       1.08882      .   S
    C64    H18       1.09007      .   S
    C82    O120      1.27748      .   S
    C82    O122      1.27664      .   S
    C47    C42       1.39494      .   S
    C47    C46       1.40771      .   S
    C42    S97       1.73740      .   S
    O120   Zn3       2.05027      .   S
    H35    C95       1.08998      .   S
    H33    C93       1.08954      .   S
    O122   Zn2       2.08141      .   S
    C46    H7        1.08789      .   S
    C46    C36       1.38518      .   S
    C95    C93       1.38940      .   S
    C95    N107      1.34929      .   S
    C93    C83       1.40366      .   S
    S97    C36       1.73411      .   S
    H31    C91       1.08794      .   S
    H25    C78       1.08956      .   S
    C91    C81       1.38508      .   S
    C91    C92       1.40787      .   S
    O121   C84       1.27671      .   S
    O121   Zn3       2.09663      .   S
    C81    C84       1.47309      .   S
    C81    S103      1.73418      .   S
    H32    C92       1.08886      .   S
    H27    C80       1.09000      .   S
    C84    O123      1.27793      .   S
    Zn3    N107      2.06168  1_455   S
    Zn3    O118      2.07890      .   S
    Zn3    O119      2.09040      .   S
    N107   C90       1.34851      .   S
    C92    C87       1.39494      .   S
    C78    C80       1.38939      .   S
    C78    C68       1.40371      .   S
    C36    C39       1.47288      .   S
    S100   C70       1.73896  1_565   S
    S100   C71       1.73170      .   S
    O123   Zn2       2.08809      .   S
    S103   C87       1.73733      .   S
    O118   C67       1.27689      .   S
    C87    C70       1.44305      .   S
    C80    N106      1.34927      .   S
    C83    C68       1.47799      .   S
    C83    C88       1.40063      .   S
    C68    C73       1.40080      .   S
    C70    C79       1.39393      .   S
    C67    C71       1.47573      .   S
    C67    O116      1.27730      .   S
    Zn2    N106      2.06210      .   S
    Zn2    O116      2.05198      .   S
    Zn2    O117      2.09296      .   S
    C71    C74       1.38495  1_565   S
    N106   C75       1.34854      .   S
    C79    C74       1.40990      .   S
    C79    H26       1.09011      .   S
    C73    C75       1.38684      .   S
    C73    H20       1.08780      .   S
    C74    H21       1.08674      .   S
    C75    H22       1.08817      .   S
    C90    C88       1.38682      .   S
    C90    H30       1.08818  1_655   S
    C88    H28       1.08761      .   S
    C39    O109      1.27711      .   S
    C39    O111      1.27778      .   S
    O109   Zn0       2.09297      .   S
    O119   C69       1.27778      .   S
    H12    C58       1.08760      .   S
    O111   Zn1       2.09040      .   S
    H14    C60       1.08818  1_655   S
    O117   C69       1.27711      .   S
    C69    C66       1.47288      .   S
    C58    C60       1.38683      .   S
    C58    C53       1.40063      .   S
    C60    N105      1.34850      .   S
    H6     C45       1.08816      .   S
    H5     C44       1.08674      .   S
    H4     C43       1.08780      .   S
    H10    C49       1.09012      .   S
    C45    C43       1.38684      .   S
    C45    N104      1.34852      .   S
    C44    C49       1.40989      .   S
    C44    C41       1.38494  1_565   S
    O108   Zn0       2.05198      .   S
    O108   C37       1.27730      .   S
    C43    C38       1.40079      .   S
    C49    C40       1.39392      .   S
    N104   Zn0       2.06211      .   S
    N104   C50       1.34927      .   S
    C41    C37       1.47574      .   S
    C41    S96       1.73170      .   S
    Zn0    O115      2.08807      .   S
    Zn0    O114      2.08141      .   S
    C37    O110      1.27689      .   S
    C40    C57       1.44305      .   S
    C40    S96       1.73897  1_565   S
    C38    C53       1.47798      .   S
    C38    C48       1.40373      .   S
    C53    C63       1.40366      .   S
    C50    C48       1.38941      .   S
    C50    H11       1.08999      .   S
    C57    S99       1.73734      .   S
    C57    C62       1.39494      .   S
    O110   Zn1       2.07892      .   S
    S99    C51       1.73417      .   S
    O115   C54       1.27793      .   S
    C66    S101      1.73410      .   S
    C66    C76       1.38519      .   S
    C48    H9        1.08955      .   S
    C62    H16       1.08886      .   S
    C62    C61       1.40787      .   S
    N105   Zn1       2.06166  1_455   S
    N105   C65       1.34930      .   S
    Zn1    O113      2.09661      .   S
    Zn1    O112      2.05025      .   S
    C54    C51       1.47308      .   S
    C54    O113      1.27672      .   S
    C51    C61       1.38508      .   S
    C61    H15       1.08793      .   S
    S101   C72       1.73740      .   S
    H23    C76       1.08789      .   S
    C63    C65       1.38940      .   S
    C63    H17       1.08953      .   S
    C65    H19       1.08999      .   S
    C76    C77       1.40771      .   S
    O114   C52       1.27665      .   S
    O112   C52       1.27748      .   S
    H34    C94       1.09008      .   S
    C72    C77       1.39494      .   S
    C72    C85       1.44302      .   S
    C77    H24       1.08882      .   S
    C52    C56       1.47572      .   S
    C94    C85       1.39394      .   S
    C94    C89       1.40967      .   S
    C56    S98       1.73169      .   S
    C89    H29       1.08674      .   S
    Zn0    Zn1       2.86308      .   S
    Zn2    Zn3       2.86307      .   S
