# CIF file generated by openbabel 2.4.90, see http://openbabel.sf.net
data_I
_chemical_name_common ''
_cell_length_a 19.791
_cell_length_b 19.792
_cell_length_c 21.892
_cell_angle_alpha 89.997
_cell_angle_beta 90.002
_cell_angle_gamma 119.953
_space_group_name_H-M_alt 'P 1'
_space_group_name_Hall 'P 1'
loop_
    _symmetry_equiv_pos_as_xyz
    x,y,z
loop_
    _atom_site_label
    _atom_site_type_symbol
    _atom_site_fract_x
    _atom_site_fract_y
    _atom_site_fract_z
    _atom_site_occupancy
    H0      H    0.12317   0.16419   0.81628   1.000
    H1      H    0.12317   0.66418   0.81628   1.000
    H2      H    0.62317   0.16419   0.81628   1.000
    H3      H    0.62316   0.66418   0.81628   1.000
    H4      H    0.20890   0.25053   0.63450   1.000
    H5      H    0.20890   0.75052   0.63456   1.000
    H6      H    0.70890   0.25053   0.63456   1.000
    H7      H    0.70890   0.75051   0.63450   1.000
    H8      H    0.04078   0.37700   0.48298   1.000
    H9      H    0.04077   0.87699   0.48298   1.000
    H10     H    0.54077   0.37699   0.48298   1.000
    H11     H    0.54077   0.87698   0.48298   1.000
    H12     H    0.04108   0.29111   0.30125   1.000
    H13     H    0.04109   0.79111   0.30120   1.000
    H14     H    0.54109   0.29111   0.30124   1.000
    H15     H    0.54109   0.79110   0.30124   1.000
    H16     H    0.33573   0.45898   0.14959   1.000
    H17     H    0.33573   0.95897   0.14900   1.000
    H18     H    0.83573   0.45898   0.14959   1.000
    H19     H    0.83572   0.95897   0.14900   1.000
    H20     H    0.24972   0.45901   0.96786   1.000
    H21     H    0.24972   0.95901   0.96786   1.000
    H22     H    0.74972   0.45901   0.96780   1.000
    H23     H    0.74972   0.95900   0.96786   1.000
    H24     H    0.37709   0.33587   0.31634   1.000
    H25     H    0.37708   0.83586   0.31634   1.000
    H26     H    0.87709   0.33587   0.31634   1.000
    H27     H    0.87709   0.83587   0.31634   1.000
    H28     H    0.29105   0.24966   0.13466   1.000
    H29     H    0.29104   0.74964   0.13466   1.000
    H30     H    0.79105   0.24965   0.13466   1.000
    H31     H    0.79105   0.74964   0.13460   1.000
    H32     H    0.45911   0.12286   0.98309   1.000
    H33     H    0.45910   0.62284   0.98309   1.000
    H34     H    0.95911   0.12285   0.98309   1.000
    H35     H    0.95910   0.62284   0.98309   1.000
    H36     H    0.45927   0.20907   0.80138   1.000
    H37     H    0.45927   0.70906   0.80138   1.000
    H38     H    0.95926   0.20906   0.80138   1.000
    H39     H    0.95927   0.70906   0.80138   1.000
    H40     H    0.16429   0.04125   0.64968   1.000
    H41     H    0.16429   0.54124   0.64968   1.000
    H42     H    0.66430   0.04125   0.64960   1.000
    H43     H    0.66429   0.54124   0.64960   1.000
    H44     H    0.25021   0.04084   0.46798   1.000
    H45     H    0.25021   0.54083   0.46798   1.000
    H46     H    0.75020   0.04082   0.46798   1.000
    H47     H    0.75020   0.54082   0.46798   1.000
    H48     H    0.45898   0.33570   0.85042   1.000
    H49     H    0.45897   0.83568   0.85040   1.000
    H50     H    0.95898   0.33569   0.85042   1.000
    H51     H    0.95897   0.83568   0.85042   1.000
    H52     H    0.45905   0.24972   0.03210   1.000
    H53     H    0.45906   0.74971   0.03215   1.000
    H54     H    0.95905   0.24972   0.03216   1.000
    H55     H    0.95906   0.74971   0.03216   1.000
    H56     H    0.16418   0.12317   0.18373   1.000
    H57     H    0.16418   0.62316   0.18373   1.000
    H58     H    0.66417   0.12317   0.18373   1.000
    H59     H    0.66417   0.62316   0.18373   1.000
    H60     H    0.25048   0.20890   0.36545   1.000
    H61     H    0.25048   0.70889   0.36545   1.000
    H62     H    0.75049   0.20889   0.36545   1.000
    H63     H    0.75049   0.70888   0.36545   1.000
    H64     H    0.37700   0.04083   0.51703   1.000
    H65     H    0.37700   0.54083   0.51703   1.000
    H66     H    0.87700   0.04083   0.51703   1.000
    H67     H    0.87700   0.54082   0.51703   1.000
    H68     H    0.29108   0.04106   0.69877   1.000
    H69     H    0.29107   0.54105   0.69877   1.000
    H70     H    0.79107   0.04105   0.69877   1.000
    H71     H    0.79107   0.54105   0.69877   1.000
    H72     H    0.04126   0.16434   0.35033   1.000
    H73     H    0.04126   0.66433   0.35033   1.000
    H74     H    0.54127   0.16433   0.35033   1.000
    H75     H    0.54126   0.66432   0.35033   1.000
    C76     C    0.95955   0.82558   0.89912   1.000
    C77     C    0.45858   0.28135   0.99170   1.000
    C78     C    0.45858   0.78134   0.99177   1.000
    C79     C    0.95858   0.28134   0.99178   1.000
    H80     H    0.04079   0.25022   0.53204   1.000
    H81     H    0.04079   0.75021   0.53204   1.000
    H82     H    0.54079   0.25021   0.53203   1.000
    H83     H    0.54079   0.75020   0.53203   1.000
    H84     H    0.33589   0.37709   0.68367   1.000
    H85     H    0.33589   0.87707   0.68367   1.000
    H86     H    0.83589   0.37709   0.68367   1.000
    H87     H    0.83589   0.87707   0.68367   1.000
    H88     H    0.24968   0.29105   0.86535   1.000
    H89     H    0.24967   0.79105   0.86535   1.000
    H90     H    0.74968   0.29105   0.86535   1.000
    H91     H    0.74967   0.79104   0.86535   1.000
    H92     H    0.12286   0.45906   0.01692   1.000
    H93     H    0.12286   0.95905   0.01692   1.000
    H94     H    0.62286   0.45905   0.01692   1.000
    H95     H    0.62286   0.95905   0.01692   1.000
    H96     H    0.20911   0.45930   0.19863   1.000
    H97     H    0.20911   0.95930   0.19863   1.000
    H98     H    0.70911   0.45930   0.19863   1.000
    H99     H    0.70911   0.95929   0.19863   1.000
    C100    C    0.19687   0.23569   0.73689   1.000
    C101    C    0.19687   0.73568   0.73689   1.000
    C102    C    0.69687   0.23569   0.73689   1.000
    C103    C    0.69687   0.73567   0.73689   1.000
    C104    C    0.13381   0.17435   0.76750   1.000
    C105    C    0.13381   0.67434   0.76758   1.000
    C106    C    0.63381   0.17435   0.76758   1.000
    C107    C    0.63381   0.67434   0.76750   1.000
    C108    C    0.13361   0.45971   0.06562   1.000
    C109    C    0.13361   0.95970   0.06562   1.000
    C110    C    0.63361   0.45971   0.06562   1.000
    C111    C    0.63361   0.95970   0.06562   1.000
    C112    C    0.17697   0.45879   0.15825   1.000
    C113    C    0.17691   0.21879   0.67495   1.000
    C114    C    0.17691   0.71878   0.67495   1.000
    C115    C    0.67691   0.21879   0.67490   1.000
    C116    C    0.67691   0.71878   0.67495   1.000
    C117    C    0.03841   0.30319   0.40358   1.000
    C118    C    0.03841   0.80318   0.40358   1.000
    C119    C    0.53841   0.30318   0.40358   1.000
    C120    C    0.53841   0.80317   0.40358   1.000
    C121    C    0.04023   0.36632   0.43428   1.000
    C122    C    0.04022   0.86631   0.43428   1.000
    C123    C    0.54022   0.36632   0.43428   1.000
    C124    C    0.54022   0.86631   0.43428   1.000
    C125    C    0.04147   0.32317   0.34164   1.000
    C126    C    0.04147   0.82316   0.34164   1.000
    C127    C    0.54147   0.32317   0.34160   1.000
    C128    C    0.54147   0.82316   0.34160   1.000
    C129    C    0.26443   0.46160   0.07018   1.000
    C130    C    0.26443   0.96159   0.07018   1.000
    C131    C    0.76443   0.46160   0.07010   1.000
    C132    C    0.76442   0.96159   0.07018   1.000
    C133    C    0.32564   0.45959   0.10089   1.000
    C134    C    0.32564   0.95958   0.10089   1.000
    C135    C    0.82564   0.45959   0.10089   1.000
    C136    C    0.82564   0.95957   0.10089   1.000
    C137    C    0.28136   0.45855   0.00824   1.000
    C138    C    0.28137   0.95855   0.00824   1.000
    C139    C    0.78136   0.45855   0.00820   1.000
    C140    C    0.78136   0.95854   0.00824   1.000
    C141    C    0.30324   0.26444   0.23699   1.000
    C142    C    0.30324   0.76442   0.23698   1.000
    C143    C    0.80324   0.26443   0.23699   1.000
    C144    C    0.80324   0.76442   0.23699   1.000
    C145    C    0.36636   0.32574   0.26765   1.000
    C146    C    0.36636   0.82572   0.26765   1.000
    C147    C    0.86636   0.32573   0.26765   1.000
    C148    C    0.86636   0.82572   0.26765   1.000
    C149    C    0.32311   0.28136   0.17503   1.000
    C150    C    0.32311   0.78135   0.17503   1.000
    C151    C    0.82311   0.28136   0.17503   1.000
    C152    C    0.82311   0.78135   0.17503   1.000
    C153    C    0.46169   0.19682   0.90370   1.000
    C154    C    0.46169   0.69681   0.90371   1.000
    C155    C    0.96169   0.19681   0.90372   1.000
    C156    C    0.96169   0.69680   0.90372   1.000
    C157    C    0.45977   0.13362   0.93400   1.000
    C158    C    0.45977   0.63360   0.93439   1.000
    C159    C    0.95977   0.13361   0.93440   1.000
    C160    C    0.95977   0.63360   0.93440   1.000
    C161    C    0.45878   0.17694   0.84176   1.000
    C162    C    0.45877   0.67692   0.84176   1.000
    C163    C    0.95877   0.17693   0.84176   1.000
    C164    C    0.95877   0.67692   0.84170   1.000
    C165    C    0.23556   0.03847   0.57031   1.000
    C166    C    0.23556   0.53846   0.57031   1.000
    C167    C    0.73556   0.03846   0.57031   1.000
    C168    C    0.73556   0.53845   0.57031   1.000
    C169    C    0.17436   0.04054   0.60099   1.000
    C170    C    0.17436   0.54053   0.60099   1.000
    C171    C    0.67436   0.04054   0.60099   1.000
    C172    C    0.67436   0.54053   0.60099   1.000
    C173    C    0.21860   0.04140   0.50836   1.000
    C174    C    0.21860   0.54139   0.50836   1.000
    C175    C    0.71859   0.04139   0.50836   1.000
    C176    C    0.71859   0.54138   0.50836   1.000
    C177    C    0.46162   0.26441   0.92984   1.000
    C178    C    0.46161   0.76439   0.92980   1.000
    C179    C    0.96162   0.26440   0.92984   1.000
    C180    C    0.96162   0.76439   0.92984   1.000
    C181    C    0.45956   0.32560   0.89912   1.000
    C182    C    0.45955   0.82558   0.89912   1.000
    C183    C    0.95956   0.32559   0.89912   1.000
    C184    C    0.95858   0.78133   0.99178   1.000
    C185    C    0.23566   0.19687   0.26310   1.000
    C186    C    0.23566   0.69686   0.26312   1.000
    C187    C    0.73566   0.19687   0.26313   1.000
    C188    C    0.73566   0.69686   0.26313   1.000
    C189    C    0.17435   0.13380   0.23243   1.000
    C190    C    0.17435   0.63379   0.23240   1.000
    C191    C    0.67435   0.13380   0.23243   1.000
    C192    C    0.67435   0.63379   0.23243   1.000
    C193    C    0.21875   0.17692   0.32507   1.000
    C194    C    0.21874   0.67691   0.32500   1.000
    C195    C    0.71875   0.17691   0.32507   1.000
    C196    C    0.71875   0.67690   0.32507   1.000
    C197    C    0.30316   0.03842   0.59644   1.000
    C198    C    0.30316   0.53841   0.59644   1.000
    C199    C    0.80316   0.03841   0.59644   1.000
    C200    C    0.80316   0.53840   0.59644   1.000
    C201    C    0.36633   0.04029   0.56573   1.000
    C202    C    0.36633   0.54029   0.56573   1.000
    C203    C    0.86633   0.04029   0.56573   1.000
    C204    C    0.86633   0.54028   0.56573   1.000
    C205    C    0.32314   0.04146   0.65838   1.000
    C206    C    0.32313   0.54144   0.65838   1.000
    C207    C    0.82313   0.04145   0.65838   1.000
    C208    C    0.82313   0.54144   0.65838   1.000
    C209    C    0.03844   0.23558   0.42971   1.000
    C210    C    0.03844   0.73557   0.42971   1.000
    C211    C    0.53844   0.23558   0.42970   1.000
    C212    C    0.53844   0.73557   0.42970   1.000
    C213    C    0.04058   0.17442   0.39903   1.000
    C214    C    0.04058   0.67440   0.39903   1.000
    C215    C    0.54058   0.17441   0.39902   1.000
    C216    C    0.54058   0.67440   0.39900   1.000
    C217    C    0.04135   0.21861   0.49166   1.000
    C218    C    0.04135   0.71860   0.49166   1.000
    C219    C    0.54135   0.21860   0.49166   1.000
    C220    C    0.54135   0.71859   0.49166   1.000
    C221    C    0.26445   0.30324   0.76303   1.000
    C222    C    0.26445   0.80323   0.76303   1.000
    C223    C    0.76445   0.30324   0.76303   1.000
    C224    C    0.76445   0.80323   0.76303   1.000
    C225    C    0.32573   0.36638   0.73236   1.000
    C226    C    0.32573   0.86637   0.73236   1.000
    C227    C    0.82574   0.36638   0.73236   1.000
    C228    C    0.82573   0.86636   0.73236   1.000
    C229    C    0.28139   0.32311   0.82498   1.000
    C230    C    0.28139   0.82310   0.82498   1.000
    C231    C    0.78139   0.32310   0.82498   1.000
    C232    C    0.78139   0.82309   0.82498   1.000
    C233    C    0.19684   0.46169   0.09630   1.000
    C234    C    0.19685   0.96169   0.09630   1.000
    C235    C    0.69685   0.46169   0.09630   1.000
    C236    C    0.69684   0.96168   0.09630   1.000
    C237    C    0.17697   0.95879   0.15825   1.000
    C238    C    0.67697   0.45880   0.15825   1.000
    C239    C    0.67697   0.95878   0.15825   1.000
    N240    N    0.08044   0.12474   0.72696   1.000
    N241    N    0.08044   0.62473   0.72696   1.000
    N242    N    0.58044   0.12474   0.72696   1.000
    N243    N    0.58043   0.62473   0.72696   1.000
    N244    N    0.10706   0.15292   0.66934   1.000
    N245    N    0.10706   0.65291   0.66934   1.000
    N246    N    0.60706   0.15292   0.66934   1.000
    N247    N    0.60706   0.65291   0.66934   1.000
    N248    N    0.04411   0.41979   0.39367   1.000
    N249    N    0.04411   0.91978   0.39367   1.000
    N250    N    0.54411   0.41979   0.39366   1.000
    N251    N    0.54410   0.91978   0.39366   1.000
    N252    N    0.04556   0.39311   0.33604   1.000
    N253    N    0.04556   0.89310   0.33604   1.000
    N254    N    0.54557   0.39311   0.33604   1.000
    N255    N    0.54556   0.89310   0.33604   1.000
    N256    N    0.37521   0.45565   0.06020   1.000
    N257    N    0.37521   0.95564   0.06029   1.000
    N258    N    0.87521   0.45565   0.06020   1.000
    N259    N    0.87521   0.95564   0.06029   1.000
    N260    N    0.34714   0.45430   0.00000   1.000
    N261    N    0.34714   0.95430   0.00000   1.000
    N262    N    0.84713   0.45430   0.00000   1.000
    N263    N    0.84713   0.95429   0.00000   1.000
    N264    N    0.41969   0.37535   0.22700   1.000
    N265    N    0.41968   0.87533   0.22000   1.000
    N266    N    0.91968   0.37534   0.22700   1.000
    N267    N    0.91968   0.87534   0.22700   1.000
    N268    N    0.39296   0.34721   0.16939   1.000
    N269    N    0.39296   0.84720   0.16939   1.000
    N270    N    0.89296   0.34721   0.16939   1.000
    N271    N    0.89296   0.84720   0.16939   1.000
    N272    N    0.45596   0.08021   0.89370   1.000
    N273    N    0.45595   0.58019   0.89370   1.000
    N274    N    0.95596   0.08020   0.89376   1.000
    N275    N    0.95595   0.58019   0.89376   1.000
    N276    N    0.45467   0.10699   0.83614   1.000
    N277    N    0.45466   0.60698   0.83614   1.000
    N278    N    0.95466   0.10699   0.83614   1.000
    N279    N    0.95466   0.60698   0.83614   1.000
    N280    N    0.12478   0.04441   0.56035   1.000
    N281    N    0.12478   0.54440   0.56035   1.000
    N282    N    0.62478   0.04441   0.56035   1.000
    N283    N    0.62478   0.54440   0.56035   1.000
    N284    N    0.15282   0.04563   0.50273   1.000
    N285    N    0.15282   0.54562   0.50273   1.000
    N286    N    0.65281   0.04561   0.50273   1.000
    N287    N    0.65281   0.54561   0.50273   1.000
    N288    N    0.45566   0.37518   0.93973   1.000
    N289    N    0.45566   0.87517   0.93970   1.000
    N290    N    0.95566   0.37518   0.93973   1.000
    N291    N    0.95566   0.87517   0.93973   1.000
    N292    N    0.45431   0.34712   0.99734   1.000
    N293    N    0.45431   0.84711   0.99734   1.000
    N294    N    0.95431   0.34711   0.99734   1.000
    N295    N    0.95431   0.84710   0.99734   1.000
    N296    N    0.12471   0.08045   0.27305   1.000
    N297    N    0.12471   0.58043   0.27305   1.000
    N298    N    0.62471   0.08044   0.27305   1.000
    N299    N    0.62471   0.58043   0.27305   1.000
    N300    N    0.15289   0.10706   0.33067   1.000
    N301    N    0.15289   0.60705   0.33060   1.000
    N302    N    0.65289   0.10705   0.33067   1.000
    N303    N    0.65289   0.60704   0.33067   1.000
    N304    N    0.41978   0.04414   0.60635   1.000
    N305    N    0.41978   0.54413   0.60635   1.000
    N306    N    0.91978   0.04413   0.60635   1.000
    N307    N    0.91978   0.54412   0.60635   1.000
    N308    N    0.39310   0.04559   0.66397   1.000
    N309    N    0.39310   0.54557   0.66397   1.000
    N310    N    0.89310   0.04558   0.66397   1.000
    N311    N    0.89310   0.54557   0.66397   1.000
    N312    N    0.04440   0.12481   0.43967   1.000
    N313    N    0.04439   0.62480   0.43967   1.000
    N314    N    0.54440   0.12481   0.43960   1.000
    N315    N    0.54439   0.62479   0.43967   1.000
    N316    N    0.04562   0.15285   0.49729   1.000
    N317    N    0.04562   0.65284   0.49720   1.000
    N318    N    0.54562   0.15285   0.49728   1.000
    N319    N    0.54562   0.65284   0.49728   1.000
    N320    N    0.37538   0.41968   0.77301   1.000
    N321    N    0.37538   0.91967   0.77301   1.000
    N322    N    0.87538   0.41968   0.77301   1.000
    N323    N    0.87538   0.91966   0.77301   1.000
    N324    N    0.34723   0.39297   0.83062   1.000
    N325    N    0.34723   0.89296   0.83062   1.000
    N326    N    0.84723   0.39297   0.83062   1.000
    N327    N    0.84723   0.89295   0.83062   1.000
    N328    N    0.08021   0.45594   0.10626   1.000
    N329    N    0.08022   0.95593   0.10626   1.000
    N330    N    0.58022   0.45594   0.10620   1.000
    N331    N    0.58021   0.95593   0.10626   1.000
    N332    N    0.10700   0.45465   0.16387   1.000
    N333    N    0.10701   0.95464   0.16387   1.000
    N334    N    0.60701   0.45465   0.16387   1.000
    N335    N    0.60700   0.95464   0.16387   1.000
loop_
    _geom_bond_atom_site_label_1
    _geom_bond_atom_site_label_2
    _geom_bond_distance
    _geom_bond_site_symmetry_2
    _ccdc_geom_bond_type
    N263   C140      1.35772      .   S
    N263   N259      1.42710      .   S
    N262   C139      1.35761      .   S
    N262   N258      1.42529      .   S
    N261   C138      1.35771      .   S
    N261   N257      1.42711      .   S
    N260   C137      1.35775      .   S
    N260   N256      1.42529      .   S
    C139   C131      1.40449      .   S
    C139   H22       1.08633  1_554   S
    C137   C129      1.40533      .   S
    C137   H20       1.08597  1_554   S
    C138   C130      1.40533      .   S
    C138   H21       1.08599  1_554   S
    C140   C132      1.40533      .   S
    C140   H23       1.08598  1_554   S
    H94    C110      1.08598      .   S
    H95    C111      1.08599      .   S
    H93    C109      1.08599      .   S
    H92    C108      1.08598      .   S
    H52    C77       1.08623  1_554   S
    H53    C78       1.08586  1_554   S
    H55    C184      1.08586  1_554   S
    H54    C79       1.08586  1_554   S
    N256   C133      1.35585      .   S
    N258   C135      1.35586      .   S
    N259   C136      1.35455      .   S
    N257   C134      1.35456      .   S
    C111   C236      1.40345      .   S
    C111   N331      1.35468      .   S
    C110   C235      1.40346      .   S
    C110   N330      1.35380      .   S
    C109   C234      1.40346      .   S
    C109   N329      1.35467      .   S
    C108   C233      1.40347      .   S
    C108   N328      1.35467      .   S
    C131   C235      1.45615      .   S
    C131   C135      1.40425      .   S
    C132   C236      1.45547      .   S
    C132   C136      1.40341      .   S
    C129   C233      1.45544      .   S
    C129   C133      1.40342      .   S
    C130   C234      1.45545      .   S
    C130   C134      1.40341      .   S
    C235   C238      1.40528      .   S
    C233   C112      1.40528      .   S
    C234   C237      1.40529      .   S
    C236   C239      1.40528      .   S
    C136   H19       1.07314      .   S
    C135   H18       1.08583      .   S
    C133   H16       1.08583      .   S
    C134   H17       1.07315      .   S
    N330   N334      1.37445      .   S
    N329   N333      1.37325      .   S
    N331   N335      1.37326      .   S
    N328   N332      1.37326      .   S
    H31    C152      1.08731      .   S
    H28    C149      1.08624      .   S
    H29    C150      1.08624      .   S
    H30    C151      1.08624      .   S
    C112   N332      1.35119      .   S
    C112   H96       1.08617      .   S
    C237   N333      1.35120      .   S
    C237   H97       1.08617      .   S
    C238   N334      1.35120      .   S
    C238   H98       1.08617      .   S
    C239   N335      1.35120      .   S
    C239   H99       1.08617      .   S
    N269   C150      1.35122      .   S
    N269   N265      1.23422      .   S
    N268   C149      1.35122      .   S
    N268   N264      1.37345      .   S
    N270   C151      1.35122      .   S
    N270   N266      1.37345      .   S
    N271   C152      1.35122      .   S
    N271   N267      1.37345      .   S
    C149   C141      1.40542      .   S
    C150   C142      1.40521      .   S
    C151   C143      1.40542      .   S
    C152   C144      1.40542      .   S
    H58    C191      1.08589      .   S
    H57    C190      1.08525      .   S
    H59    C192      1.08589      .   S
    H56    C189      1.08590      .   S
    N265   C146      1.45989      .   S
    N264   C145      1.35463      .   S
    N266   C147      1.35463      .   S
    N267   C148      1.35463      .   S
    C190   C186      1.40372      .   S
    C190   N297      1.35509      .   S
    C192   C188      1.40351      .   S
    C192   N299      1.35465      .   S
    C191   C187      1.40351      .   S
    C191   N298      1.35466      .   S
    C189   C185      1.40319      .   S
    C189   N296      1.35466      .   S
    C142   C186      1.45545      .   S
    C142   C146      1.40355      .   S
    C144   C188      1.45545      .   S
    C144   C148      1.40344      .   S
    C143   C187      1.45544      .   S
    C143   C147      1.40345      .   S
    C141   C185      1.45520      .   S
    C141   C145      1.40344      .   S
    C185   C193      1.40588      .   S
    C186   C194      1.40398      .   S
    C187   C195      1.40526      .   S
    C188   C196      1.40526      .   S
    C148   H27       1.08582      .   S
    C147   H26       1.08582      .   S
    C146   H25       1.08581      .   S
    C145   H24       1.08582      .   S
    N296   N300      1.37345      .   S
    N297   N301      1.37204      .   S
    N298   N302      1.37345      .   S
    N299   N303      1.37344      .   S
    H13    C126      1.08705      .   S
    H14    C127      1.08562      .   S
    H15    C128      1.08562      .   S
    H12    C125      1.08617      .   S
    C194   N301      1.35125      .   S
    C194   H61       1.08737      .   S
    C193   N300      1.35125      .   S
    C193   H60       1.08612      .   S
    C196   N303      1.35126      .   S
    C196   H63       1.08612      .   S
    C195   N302      1.35126      .   S
    C195   H62       1.08613      .   S
    N253   C126      1.35120      .   S
    N253   N249      1.37355      .   S
    N252   C125      1.35121      .   S
    N252   N248      1.37354      .   S
    N254   C127      1.35113      .   S
    N254   N250      1.37334      .   S
    N255   C128      1.35114      .   S
    N255   N251      1.37334      .   S
    C128   C120      1.40614      .   S
    C127   C119      1.40614      .   S
    C125   C117      1.40529      .   S
    C126   C118      1.40530      .   S
    H75    C216      1.08533      .   S
    H74    C215      1.08576      .   S
    H73    C214      1.08597      .   S
    H72    C213      1.08597      .   S
    N250   C123      1.35473      .   S
    N251   C124      1.35473      .   S
    N248   C121      1.35457      .   S
    N249   C122      1.35458      .   S
    C216   C212      1.40369      .   S
    C216   N315      1.35507      .   S
    C215   C211      1.40347      .   S
    C215   N314      1.35379      .   S
    C214   C210      1.40348      .   S
    C214   N313      1.35465      .   S
    C213   C209      1.40346      .   S
    C213   N312      1.35467      .   S
    C120   C212      1.45537      .   S
    C120   C124      1.40345      .   S
    C119   C211      1.45541      .   S
    C119   C123      1.40343      .   S
    C118   C210      1.45547      .   S
    C118   C122      1.40344      .   S
    C117   C209      1.45548      .   S
    C117   C121      1.40344      .   S
    C212   C220      1.40547      .   S
    C211   C219      1.40546      .   S
    C209   C217      1.40526      .   S
    C210   C218      1.40526      .   S
    C121   H8        1.08589      .   S
    C122   H9        1.08589      .   S
    C124   H11       1.08589      .   S
    C123   H10       1.08588      .   S
    N314   N318      1.37466      .   S
    N312   N316      1.37346      .   S
    N313   N317      1.37164      .   S
    N315   N319      1.37325      .   S
    H47    C176      1.08626      .   S
    H46    C175      1.08626      .   S
    H45    C174      1.08626      .   S
    H44    C173      1.08626      .   S
    C220   N319      1.35127      .   S
    C220   H83       1.08610      .   S
    C219   N318      1.35127      .   S
    C219   H82       1.08610      .   S
    C218   N317      1.35109      .   S
    C218   H81       1.08628      .   S
    C217   N316      1.35127      .   S
    C217   H80       1.08628      .   S
    N286   C175      1.35127      .   S
    N286   N282      1.37344      .   S
    N284   C173      1.35125      .   S
    N284   N280      1.37345      .   S
    N285   C174      1.35126      .   S
    N285   N281      1.37344      .   S
    N287   C176      1.35126      .   S
    N287   N283      1.37344      .   S
    C176   C168      1.40526      .   S
    C175   C167      1.40526      .   S
    C174   C166      1.40526      .   S
    C173   C165      1.40527      .   S
    H66    C203      1.08588      .   S
    H64    C201      1.08588      .   S
    H65    C202      1.08588      .   S
    H67    C204      1.08588      .   S
    N283   C172      1.35465      .   S
    N282   C171      1.35466      .   S
    N281   C170      1.35465      .   S
    N280   C169      1.35467      .   S
    C202   C198      1.40353      .   S
    C202   N305      1.35473      .   S
    C203   C199      1.40352      .   S
    C203   N306      1.35474      .   S
    C204   C200      1.40351      .   S
    C204   N307      1.35474      .   S
    C201   C197      1.40353      .   S
    C201   N304      1.35473      .   S
    C165   C197      1.45548      .   S
    C165   C169      1.40346      .   S
    C168   C200      1.45549      .   S
    C168   C172      1.40348      .   S
    C167   C199      1.45548      .   S
    C167   C171      1.40346      .   S
    C166   C198      1.45549      .   S
    C166   C170      1.40347      .   S
    C197   C205      1.40530      .   S
    C198   C206      1.40529      .   S
    C199   C207      1.40530      .   S
    C200   C208      1.40529      .   S
    C169   H40       1.08576      .   S
    C170   H41       1.08576      .   S
    C171   H42       1.08404      .   S
    C172   H43       1.08404      .   S
    N306   N310      1.37332      .   S
    N305   N309      1.37334      .   S
    N304   N308      1.37333      .   S
    N307   N311      1.37333      .   S
    H4     C113      1.08741      .   S
    H7     C116      1.08741      .   S
    H5     C114      1.08634      .   S
    H6     C115      1.08545      .   S
    C208   N311      1.35121      .   S
    C208   H71       1.08613      .   S
    C207   N310      1.35122      .   S
    C207   H70       1.08614      .   S
    C206   N309      1.35120      .   S
    C206   H69       1.08615      .   S
    C205   N308      1.35120      .   S
    C205   H68       1.08614      .   S
    N246   C115      1.35115      .   S
    N246   N242      1.37346      .   S
    N247   C116      1.35124      .   S
    N247   N243      1.37347      .   S
    N244   C113      1.35124      .   S
    N244   N240      1.37346      .   S
    N245   C114      1.35125      .   S
    N245   N241      1.37346      .   S
    C115   C102      1.40630      .   S
    C113   C100      1.40524      .   S
    C114   C101      1.40524      .   S
    C116   C103      1.40523      .   S
    H85    C226      1.08580      .   S
    H87    C228      1.08580      .   S
    H86    C227      1.08580      .   S
    H84    C225      1.08580      .   S
    N240   C104      1.35348      .   S
    N241   C105      1.35462      .   S
    N242   C106      1.35462      .   S
    N243   C107      1.35347      .   S
    C226   C222      1.40350      .   S
    C226   N321      1.35469      .   S
    C228   C224      1.40350      .   S
    C228   N323      1.35469      .   S
    C227   C223      1.40351      .   S
    C227   N322      1.35467      .   S
    C225   C221      1.40349      .   S
    C225   N320      1.35469      .   S
    C102   C223      1.45545      .   S
    C102   C106      1.40344      .   S
    C103   C224      1.45546      .   S
    C103   C107      1.40260      .   S
    C101   C222      1.45546      .   S
    C101   C105      1.40344      .   S
    C100   C221      1.45547      .   S
    C100   C104      1.40259      .   S
    C224   C232      1.40523      .   S
    C223   C231      1.40523      .   S
    C222   C230      1.40523      .   S
    C221   C229      1.40523      .   S
    C104   H0        1.08762      .   S
    C107   H3        1.08763      .   S
    C105   H1        1.08591      .   S
    C106   H2        1.08590      .   S
    N321   N325      1.37344      .   S
    N322   N326      1.37343      .   S
    N323   N327      1.37343      .   S
    N320   N324      1.37343      .   S
    H36    C161      1.08617      .   S
    H37    C162      1.08617      .   S
    H39    C164      1.08510      .   S
    H38    C163      1.08616      .   S
    C229   N324      1.35124      .   S
    C229   H88       1.08619      .   S
    C230   N325      1.35124      .   S
    C230   H89       1.08620      .   S
    C231   N326      1.35125      .   S
    C231   H90       1.08619      .   S
    C232   N327      1.35124      .   S
    C232   H91       1.08620      .   S
    N278   C163      1.35119      .   S
    N278   N274      1.37346      .   S
    N279   C164      1.35106      .   S
    N279   N275      1.37346      .   S
    N277   C162      1.35118      .   S
    N277   N273      1.37225      .   S
    N276   C161      1.35118      .   S
    N276   N272      1.37225      .   S
    C164   C156      1.40677      .   S
    C163   C155      1.40550      .   S
    C162   C154      1.40529      .   S
    C161   C153      1.40508      .   S
    H49    C182      1.08625      .   S
    H48    C181      1.08582      .   S
    H50    C183      1.08582      .   S
    H51    C76       1.08582      .   S
    N272   C157      1.34981      .   S
    N273   C158      1.35539      .   S
    N274   C159      1.35469      .   S
    N275   C160      1.35467      .   S
    C182   C178      1.40311      .   S
    C182   N289      1.35424      .   S
    C76    C180      1.40352      .   S
    C76    N291      1.35469      .   S
    C183   C179      1.40352      .   S
    C183   N290      1.35468      .   S
    C181   C177      1.40353      .   S
    C181   N288      1.35468      .   S
    C153   C177      1.45563      .   S
    C153   C157      1.39950      .   S
    C154   C178      1.45519      .   S
    C154   C158      1.40348      .   S
    C155   C179      1.45546      .   S
    C155   C159      1.40346      .   S
    C156   C180      1.45546      .   S
    C156   C160      1.40347      .   S
    C178   C78       1.40596      .   S
    C177   C77       1.40363      .   S
    C179   C79       1.40532      .   S
    C180   C184      1.40533      .   S
    C157   H32       1.09437      .   S
    C158   H33       1.08598      .   S
    C160   H35       1.08577      .   S
    C159   H34       1.08577      .   S
    N289   N293      1.37355      .   S
    N291   N295      1.37295      .   S
    N288   N292      1.37295      .   S
    N290   N294      1.37295      .   S
    C77    N292      1.35155      .   S
    C78    N293      1.35140      .   S
    C79    N294      1.35138      .   S
    C184   N295      1.35137      .   S
