# CIF file generated by openbabel 2.4.90, see http://openbabel.sf.net
data_I
_chemical_name_common ''
_cell_length_a 19.791
_cell_length_b 19.792
_cell_length_c 21.892
_cell_angle_alpha 89.997
_cell_angle_beta 90.002
_cell_angle_gamma 119.953
_space_group_name_H-M_alt 'P 1'
_space_group_name_Hall 'P 1'
loop_
    _symmetry_equiv_pos_as_xyz
    x,y,z
loop_
    _atom_site_label
    _atom_site_type_symbol
    _atom_site_fract_x
    _atom_site_fract_y
    _atom_site_fract_z
    _atom_site_occupancy
    Zr0     Zr   0.45469   0.04546   0.75003   1.000
    Zr1     Zr   0.45469   0.54545   0.75003   1.000
    Zr2     Zr   0.95469   0.04546   0.75003   1.000
    Zr3     Zr   0.95469   0.54545   0.75003   1.000
    Zr4     Zr   0.09113   0.04564   0.41671   1.000
    Zr5     Zr   0.09113   0.54563   0.41671   1.000
    Zr6     Zr   0.59113   0.04564   0.41671   1.000
    Zr7     Zr   0.59113   0.54563   0.41671   1.000
    Zr8     Zr   0.45433   0.40890   0.08331   1.000
    Zr9     Zr   0.45433   0.90888   0.08331   1.000
    Zr10    Zr   0.95433   0.40889   0.08331   1.000
    Zr11    Zr   0.95433   0.90888   0.08331   1.000
    Zr12    Zr   0.04545   0.45468   0.24990   1.000
    Zr13    Zr   0.04545   0.95467   0.24990   1.000
    Zr14    Zr   0.54545   0.45468   0.24997   1.000
    Zr15    Zr   0.54545   0.95467   0.24997   1.000
    Zr16    Zr   0.40892   0.45432   0.91670   1.000
    Zr17    Zr   0.40892   0.95431   0.91670   1.000
    Zr18    Zr   0.90892   0.45432   0.91670   1.000
    Zr19    Zr   0.90892   0.95431   0.91670   1.000
    Zr20    Zr   0.04564   0.09116   0.58330   1.000
    Zr21    Zr   0.04564   0.59116   0.58330   1.000
    Zr22    Zr   0.54564   0.09116   0.58330   1.000
    Zr23    Zr   0.54564   0.59115   0.58330   1.000
    Zr24    Zr   0.12317   0.16419   0.81628   1.000
    Zr25    Zr   0.12317   0.66418   0.81628   1.000
    Zr26    Zr   0.62317   0.16419   0.81628   1.000
    Zr27    Zr   0.62316   0.66418   0.81628   1.000
    Zr28    Zr   0.20890   0.25053   0.63450   1.000
    Zr29    Zr   0.20890   0.75052   0.63456   1.000
    Zr30    Zr   0.70890   0.25053   0.63456   1.000
    Zr31    Zr   0.70890   0.75051   0.63450   1.000
    Zr32    Zr   0.04078   0.37700   0.48298   1.000
    Zr33    Zr   0.04077   0.87699   0.48298   1.000
    Zr34    Zr   0.54077   0.37699   0.48298   1.000
    Zr35    Zr   0.54077   0.87698   0.48298   1.000
    Zr36    Zr   0.04108   0.29111   0.30125   1.000
    Zr37    Zr   0.04109   0.79111   0.30120   1.000
    Zr38    Zr   0.54109   0.29111   0.30124   1.000
    Zr39    Zr   0.54109   0.79110   0.30124   1.000
    Zr40    Zr   0.33573   0.45898   0.14959   1.000
    Zr41    Zr   0.33573   0.95897   0.14900   1.000
    Zr42    Zr   0.83573   0.45898   0.14959   1.000
    Zr43    Zr   0.83572   0.95897   0.14900   1.000
    Zr44    Zr   0.24972   0.45901   0.96786   1.000
    Zr45    Zr   0.24972   0.95901   0.96786   1.000
    Zr46    Zr   0.74972   0.45901   0.96780   1.000
    Zr47    Zr   0.74972   0.95900   0.96786   1.000
    Zr48    Zr   0.37709   0.33587   0.31634   1.000
    Zr49    Zr   0.37708   0.83586   0.31634   1.000
    Zr50    Zr   0.87709   0.33587   0.31634   1.000
    Zr51    Zr   0.87709   0.83587   0.31634   1.000
    Zr52    Zr   0.29105   0.24966   0.13466   1.000
    Zr53    Zr   0.29104   0.74964   0.13466   1.000
    Zr54    Zr   0.79105   0.24965   0.13466   1.000
    Zr55    Zr   0.79105   0.74964   0.13460   1.000
    Zr56    Zr   0.45911   0.12286   0.98309   1.000
    Zr57    Zr   0.45910   0.62284   0.98309   1.000
    Zr58    Zr   0.95911   0.12285   0.98309   1.000
    Zr59    Zr   0.95910   0.62284   0.98309   1.000
    Zr60    Zr   0.45927   0.20907   0.80138   1.000
    Zr61    Zr   0.45927   0.70906   0.80138   1.000
    Zr62    Zr   0.95926   0.20906   0.80138   1.000
    Zr63    Zr   0.95927   0.70906   0.80138   1.000
    Zr64    Zr   0.16429   0.04125   0.64968   1.000
    Zr65    Zr   0.16429   0.54124   0.64968   1.000
    Zr66    Zr   0.66430   0.04125   0.64960   1.000
    Zr67    Zr   0.66429   0.54124   0.64960   1.000
    Zr68    Zr   0.25021   0.04084   0.46798   1.000
    Zr69    Zr   0.25021   0.54083   0.46798   1.000
    Zr70    Zr   0.75020   0.04082   0.46798   1.000
    Zr71    Zr   0.75020   0.54082   0.46798   1.000
    Zr72    Zr   0.45898   0.33570   0.85042   1.000
    Zr73    Zr   0.45897   0.83568   0.85040   1.000
    Zr74    Zr   0.95898   0.33569   0.85042   1.000
    Zr75    Zr   0.95897   0.83568   0.85042   1.000
    Zr76    Zr   0.45905   0.24972   0.03210   1.000
    Zr77    Zr   0.45906   0.74971   0.03215   1.000
    Zr78    Zr   0.95905   0.24972   0.03216   1.000
    Zr79    Zr   0.95906   0.74971   0.03216   1.000
    Zr80    Zr   0.16418   0.12317   0.18373   1.000
    Zr81    Zr   0.16418   0.62316   0.18373   1.000
    Zr82    Zr   0.66417   0.12317   0.18373   1.000
    Zr83    Zr   0.66417   0.62316   0.18373   1.000
    Zr84    Zr   0.25048   0.20890   0.36545   1.000
    Zr85    Zr   0.25048   0.70889   0.36545   1.000
    Zr86    Zr   0.75049   0.20889   0.36545   1.000
    Zr87    Zr   0.75049   0.70888   0.36545   1.000
    Zr88    Zr   0.37700   0.04083   0.51703   1.000
    Zr89    Zr   0.37700   0.54083   0.51703   1.000
    Zr90    Zr   0.87700   0.04083   0.51703   1.000
    Zr91    Zr   0.87700   0.54082   0.51703   1.000
    Zr92    Zr   0.29108   0.04106   0.69877   1.000
    Zr93    Zr   0.29107   0.54105   0.69877   1.000
    Zr94    Zr   0.79107   0.04105   0.69877   1.000
    Zr95    Zr   0.79107   0.54105   0.69877   1.000
    Zr96    Zr   0.04126   0.16434   0.35033   1.000
    Zr97    Zr   0.04126   0.66433   0.35033   1.000
    Zr98    Zr   0.54127   0.16433   0.35033   1.000
    Zr99    Zr   0.54126   0.66432   0.35033   1.000
    Zr100   Zr   0.04079   0.25022   0.53204   1.000
    Zr101   Zr   0.04079   0.75021   0.53204   1.000
    Zr102   Zr   0.54079   0.25021   0.53203   1.000
    Zr103   Zr   0.54079   0.75020   0.53203   1.000
    Zr104   Zr   0.33589   0.37709   0.68367   1.000
    Zr105   Zr   0.33589   0.87707   0.68367   1.000
    Zr106   Zr   0.83589   0.37709   0.68367   1.000
    Zr107   Zr   0.83589   0.87707   0.68367   1.000
    Zr108   Zr   0.24968   0.29105   0.86535   1.000
    Zr109   Zr   0.24967   0.79105   0.86535   1.000
    Zr110   Zr   0.74968   0.29105   0.86535   1.000
    Zr111   Zr   0.74967   0.79104   0.86535   1.000
    Zr112   Zr   0.12286   0.45906   0.01692   1.000
    Zr113   Zr   0.12286   0.95905   0.01692   1.000
    Zr114   Zr   0.62286   0.45905   0.01692   1.000
    Zr115   Zr   0.62286   0.95905   0.01692   1.000
    Zr116   Zr   0.20911   0.45930   0.19863   1.000
    Zr117   Zr   0.20911   0.95930   0.19863   1.000
    Zr118   Zr   0.70911   0.45930   0.19863   1.000
    Zr119   Zr   0.70911   0.95929   0.19863   1.000
    Zr120   Zr   0.19687   0.23569   0.73689   1.000
    Zr121   Zr   0.19687   0.73568   0.73689   1.000
    Zr122   Zr   0.69687   0.23569   0.73689   1.000
    Zr123   Zr   0.69687   0.73567   0.73689   1.000
    Zr124   Zr   0.13381   0.17435   0.76750   1.000
    Zr125   Zr   0.13381   0.67434   0.76758   1.000
    Zr126   Zr   0.63381   0.17435   0.76758   1.000
    Zr127   Zr   0.63381   0.67434   0.76750   1.000
    Zr128   Zr   0.17691   0.21879   0.67495   1.000
    Zr129   Zr   0.17691   0.71878   0.67495   1.000
    Zr130   Zr   0.67691   0.21879   0.67490   1.000
    Zr131   Zr   0.67691   0.71878   0.67495   1.000
    Zr132   Zr   0.03841   0.30319   0.40358   1.000
    Zr133   Zr   0.03841   0.80318   0.40358   1.000
    Zr134   Zr   0.53841   0.30318   0.40358   1.000
    Zr135   Zr   0.53841   0.80317   0.40358   1.000
    Zr136   Zr   0.04023   0.36632   0.43428   1.000
    Zr137   Zr   0.04022   0.86631   0.43428   1.000
    Zr138   Zr   0.54022   0.36632   0.43428   1.000
    Zr139   Zr   0.54022   0.86631   0.43428   1.000
    Zr140   Zr   0.04147   0.32317   0.34164   1.000
    Zr141   Zr   0.04147   0.82316   0.34164   1.000
    Zr142   Zr   0.54147   0.32317   0.34160   1.000
    Zr143   Zr   0.54147   0.82316   0.34160   1.000
    Zr144   Zr   0.26443   0.46160   0.07018   1.000
    Zr145   Zr   0.26443   0.96159   0.07018   1.000
    Zr146   Zr   0.76443   0.46160   0.07010   1.000
    Zr147   Zr   0.76442   0.96159   0.07018   1.000
    Zr148   Zr   0.32564   0.45959   0.10089   1.000
    Zr149   Zr   0.32564   0.95958   0.10089   1.000
    Zr150   Zr   0.82564   0.45959   0.10089   1.000
    Zr151   Zr   0.82564   0.95957   0.10089   1.000
    Zr152   Zr   0.28136   0.45855   0.00824   1.000
    Zr153   Zr   0.28137   0.95855   0.00824   1.000
    Zr154   Zr   0.78136   0.45855   0.00820   1.000
    Zr155   Zr   0.78136   0.95854   0.00824   1.000
    Zr156   Zr   0.30324   0.26444   0.23699   1.000
    Zr157   Zr   0.30324   0.76442   0.23698   1.000
    Zr158   Zr   0.80324   0.26443   0.23699   1.000
    Zr159   Zr   0.80324   0.76442   0.23699   1.000
    Zr160   Zr   0.36636   0.32574   0.26765   1.000
    Zr161   Zr   0.36636   0.82572   0.26765   1.000
    Zr162   Zr   0.86636   0.32573   0.26765   1.000
    Zr163   Zr   0.86636   0.82572   0.26765   1.000
    Zr164   Zr   0.32311   0.28136   0.17503   1.000
    Zr165   Zr   0.32311   0.78135   0.17503   1.000
    Zr166   Zr   0.82311   0.28136   0.17503   1.000
    Zr167   Zr   0.82311   0.78135   0.17503   1.000
    Zr168   Zr   0.46169   0.19682   0.90370   1.000
    Zr169   Zr   0.46169   0.69681   0.90371   1.000
    Zr170   Zr   0.96169   0.19681   0.90372   1.000
    Zr171   Zr   0.96169   0.69680   0.90372   1.000
    Zr172   Zr   0.45977   0.13362   0.93400   1.000
    Zr173   Zr   0.45977   0.63360   0.93439   1.000
    Zr174   Zr   0.95977   0.13361   0.93440   1.000
    Zr175   Zr   0.95977   0.63360   0.93440   1.000
    Zr176   Zr   0.45878   0.17694   0.84176   1.000
    Zr177   Zr   0.45877   0.67692   0.84176   1.000
    Zr178   Zr   0.95877   0.17693   0.84176   1.000
    Zr179   Zr   0.95877   0.67692   0.84170   1.000
    Zr180   Zr   0.23556   0.03847   0.57031   1.000
    Zr181   Zr   0.23556   0.53846   0.57031   1.000
    Zr182   Zr   0.73556   0.03846   0.57031   1.000
    Zr183   Zr   0.73556   0.53845   0.57031   1.000
    Zr184   Zr   0.17436   0.04054   0.60099   1.000
    Zr185   Zr   0.17436   0.54053   0.60099   1.000
    Zr186   Zr   0.67436   0.04054   0.60099   1.000
    Zr187   Zr   0.67436   0.54053   0.60099   1.000
    Zr188   Zr   0.21860   0.04140   0.50836   1.000
    Zr189   Zr   0.21860   0.54139   0.50836   1.000
    Zr190   Zr   0.71859   0.04139   0.50836   1.000
    Zr191   Zr   0.71859   0.54138   0.50836   1.000
    Zr192   Zr   0.46162   0.26441   0.92984   1.000
    Zr193   Zr   0.46161   0.76439   0.92980   1.000
    Zr194   Zr   0.96162   0.26440   0.92984   1.000
    Zr195   Zr   0.96162   0.76439   0.92984   1.000
    Zr196   Zr   0.45956   0.32560   0.89912   1.000
    Zr197   Zr   0.45955   0.82558   0.89912   1.000
    Zr198   Zr   0.95956   0.32559   0.89912   1.000
    Zr199   Zr   0.95955   0.82558   0.89912   1.000
    Zr200   Zr   0.45858   0.28135   0.99170   1.000
    Zr201   Zr   0.45858   0.78134   0.99177   1.000
    Zr202   Zr   0.95858   0.28134   0.99178   1.000
    Zr203   Zr   0.95858   0.78133   0.99178   1.000
    Zr204   Zr   0.23566   0.19687   0.26310   1.000
    Zr205   Zr   0.23566   0.69686   0.26312   1.000
    Zr206   Zr   0.73566   0.19687   0.26313   1.000
    Zr207   Zr   0.73566   0.69686   0.26313   1.000
    Zr208   Zr   0.17435   0.13380   0.23243   1.000
    Zr209   Zr   0.17435   0.63379   0.23240   1.000
    Zr210   Zr   0.67435   0.13380   0.23243   1.000
    Zr211   Zr   0.67435   0.63379   0.23243   1.000
    Zr212   Zr   0.21875   0.17692   0.32507   1.000
    Zr213   Zr   0.21874   0.67691   0.32500   1.000
    Zr214   Zr   0.71875   0.17691   0.32507   1.000
    Zr215   Zr   0.71875   0.67690   0.32507   1.000
    Zr216   Zr   0.30316   0.03842   0.59644   1.000
    Zr217   Zr   0.30316   0.53841   0.59644   1.000
    Zr218   Zr   0.80316   0.03841   0.59644   1.000
    Zr219   Zr   0.80316   0.53840   0.59644   1.000
    Zr220   Zr   0.36633   0.04029   0.56573   1.000
    Zr221   Zr   0.36633   0.54029   0.56573   1.000
    Zr222   Zr   0.86633   0.04029   0.56573   1.000
    Zr223   Zr   0.86633   0.54028   0.56573   1.000
    Zr224   Zr   0.32314   0.04146   0.65838   1.000
    Zr225   Zr   0.32313   0.54144   0.65838   1.000
    Zr226   Zr   0.82313   0.04145   0.65838   1.000
    Zr227   Zr   0.82313   0.54144   0.65838   1.000
    Zr228   Zr   0.03844   0.23558   0.42971   1.000
    Zr229   Zr   0.03844   0.73557   0.42971   1.000
    Zr230   Zr   0.53844   0.23558   0.42970   1.000
    Zr231   Zr   0.53844   0.73557   0.42970   1.000
    Zr232   Zr   0.04058   0.17442   0.39903   1.000
    Zr233   Zr   0.04058   0.67440   0.39903   1.000
    Zr234   Zr   0.54058   0.17441   0.39902   1.000
    Zr235   Zr   0.54058   0.67440   0.39900   1.000
    Zr236   Zr   0.04135   0.21861   0.49166   1.000
    Zr237   Zr   0.04135   0.71860   0.49166   1.000
    Zr238   Zr   0.54135   0.21860   0.49166   1.000
    Zr239   Zr   0.54135   0.71859   0.49166   1.000
    Zr240   Zr   0.26445   0.30324   0.76303   1.000
    Zr241   Zr   0.26445   0.80323   0.76303   1.000
    Zr242   Zr   0.76445   0.30324   0.76303   1.000
    Zr243   Zr   0.76445   0.80323   0.76303   1.000
    Zr244   Zr   0.32573   0.36638   0.73236   1.000
    Zr245   Zr   0.32573   0.86637   0.73236   1.000
    Zr246   Zr   0.82574   0.36638   0.73236   1.000
    Zr247   Zr   0.82573   0.86636   0.73236   1.000
    Zr248   Zr   0.28139   0.32311   0.82498   1.000
    Zr249   Zr   0.28139   0.82310   0.82498   1.000
    Zr250   Zr   0.78139   0.32310   0.82498   1.000
    Zr251   Zr   0.78139   0.82309   0.82498   1.000
    Zr252   Zr   0.19684   0.46169   0.09630   1.000
    Zr253   Zr   0.19685   0.96169   0.09630   1.000
    Zr254   Zr   0.69685   0.46169   0.09630   1.000
    Zr255   Zr   0.69684   0.96168   0.09630   1.000
    Zr256   Zr   0.13361   0.45971   0.06562   1.000
    Zr257   Zr   0.13361   0.95970   0.06562   1.000
    Zr258   Zr   0.63361   0.45971   0.06562   1.000
    Zr259   Zr   0.63361   0.95970   0.06562   1.000
    Zr260   Zr   0.17697   0.45879   0.15825   1.000
    Zr261   Zr   0.17697   0.95879   0.15825   1.000
    Zr262   Zr   0.67697   0.45880   0.15825   1.000
    Zr263   Zr   0.67697   0.95878   0.15825   1.000
    Zr264   Zr   0.08044   0.12474   0.72696   1.000
    Zr265   Zr   0.08044   0.62473   0.72696   1.000
    Zr266   Zr   0.58044   0.12474   0.72696   1.000
    Zr267   Zr   0.58043   0.62473   0.72696   1.000
    Zr268   Zr   0.10706   0.15292   0.66934   1.000
    Zr269   Zr   0.10706   0.65291   0.66934   1.000
    Zr270   Zr   0.60706   0.15292   0.66934   1.000
    Zr271   Zr   0.60706   0.65291   0.66934   1.000
    Zr272   Zr   0.04411   0.41979   0.39367   1.000
    Zr273   Zr   0.04411   0.91978   0.39367   1.000
    Zr274   Zr   0.54411   0.41979   0.39366   1.000
    Zr275   Zr   0.54410   0.91978   0.39366   1.000
    Zr276   Zr   0.04556   0.39311   0.33604   1.000
    Zr277   Zr   0.04556   0.89310   0.33604   1.000
    Zr278   Zr   0.54557   0.39311   0.33604   1.000
    Zr279   Zr   0.54556   0.89310   0.33604   1.000
    Zr280   Zr   0.37521   0.45565   0.06020   1.000
    Zr281   Zr   0.37521   0.95564   0.06029   1.000
    Zr282   Zr   0.87521   0.45565   0.06020   1.000
    Zr283   Zr   0.87521   0.95564   0.06029   1.000
    Zr284   Zr   0.34714   0.45430   0.00000   1.000
    Zr285   Zr   0.34714   0.95430   0.00000   1.000
    Zr286   Zr   0.84713   0.45430   0.00000   1.000
    Zr287   Zr   0.84713   0.95429   0.00000   1.000
    Zr288   Zr   0.41969   0.37535   0.22700   1.000
    Zr289   Zr   0.41968   0.87533   0.22000   1.000
    Zr290   Zr   0.91968   0.37534   0.22700   1.000
    Zr291   Zr   0.91968   0.87534   0.22700   1.000
    Zr292   Zr   0.39296   0.34721   0.16939   1.000
    Zr293   Zr   0.39296   0.84720   0.16939   1.000
    Zr294   Zr   0.89296   0.34721   0.16939   1.000
    Zr295   Zr   0.89296   0.84720   0.16939   1.000
    Zr296   Zr   0.45596   0.08021   0.89370   1.000
    Zr297   Zr   0.45595   0.58019   0.89370   1.000
    Zr298   Zr   0.95596   0.08020   0.89376   1.000
    Zr299   Zr   0.95595   0.58019   0.89376   1.000
    Zr300   Zr   0.45467   0.10699   0.83614   1.000
    Zr301   Zr   0.45466   0.60698   0.83614   1.000
    Zr302   Zr   0.95466   0.10699   0.83614   1.000
    Zr303   Zr   0.95466   0.60698   0.83614   1.000
    Zr304   Zr   0.12478   0.04441   0.56035   1.000
    Zr305   Zr   0.12478   0.54440   0.56035   1.000
    Zr306   Zr   0.62478   0.04441   0.56035   1.000
    Zr307   Zr   0.62478   0.54440   0.56035   1.000
    Zr308   Zr   0.15282   0.04563   0.50273   1.000
    Zr309   Zr   0.15282   0.54562   0.50273   1.000
    Zr310   Zr   0.65281   0.04561   0.50273   1.000
    Zr311   Zr   0.65281   0.54561   0.50273   1.000
    Zr312   Zr   0.45566   0.37518   0.93973   1.000
    Zr313   Zr   0.45566   0.87517   0.93970   1.000
    Zr314   Zr   0.95566   0.37518   0.93973   1.000
    Zr315   Zr   0.95566   0.87517   0.93973   1.000
    Zr316   Zr   0.45431   0.34712   0.99734   1.000
    Zr317   Zr   0.45431   0.84711   0.99734   1.000
    Zr318   Zr   0.95431   0.34711   0.99734   1.000
    Zr319   Zr   0.95431   0.84710   0.99734   1.000
    Zr320   Zr   0.12471   0.08045   0.27305   1.000
    Zr321   Zr   0.12471   0.58043   0.27305   1.000
    Zr322   Zr   0.62471   0.08044   0.27305   1.000
    Zr323   Zr   0.62471   0.58043   0.27305   1.000
    Zr324   Zr   0.15289   0.10706   0.33067   1.000
    Zr325   Zr   0.15289   0.60705   0.33060   1.000
    Zr326   Zr   0.65289   0.10705   0.33067   1.000
    Zr327   Zr   0.65289   0.60704   0.33067   1.000
    Zr328   Zr   0.41978   0.04414   0.60635   1.000
    Zr329   Zr   0.41978   0.54413   0.60635   1.000
    Zr330   Zr   0.91978   0.04413   0.60635   1.000
    Zr331   Zr   0.91978   0.54412   0.60635   1.000
    Zr332   Zr   0.39310   0.04559   0.66397   1.000
    Zr333   Zr   0.39310   0.54557   0.66397   1.000
    Zr334   Zr   0.89310   0.04558   0.66397   1.000
    Zr335   Zr   0.89310   0.54557   0.66397   1.000
    Zr336   Zr   0.04440   0.12481   0.43967   1.000
    Zr337   Zr   0.04439   0.62480   0.43967   1.000
    Zr338   Zr   0.54440   0.12481   0.43960   1.000
    Zr339   Zr   0.54439   0.62479   0.43967   1.000
    Zr340   Zr   0.04562   0.15285   0.49729   1.000
    Zr341   Zr   0.04562   0.65284   0.49720   1.000
    Zr342   Zr   0.54562   0.15285   0.49728   1.000
    Zr343   Zr   0.54562   0.65284   0.49728   1.000
    Zr344   Zr   0.37538   0.41968   0.77301   1.000
    Zr345   Zr   0.37538   0.91967   0.77301   1.000
    Zr346   Zr   0.87538   0.41968   0.77301   1.000
    Zr347   Zr   0.87538   0.91966   0.77301   1.000
    Zr348   Zr   0.34723   0.39297   0.83062   1.000
    Zr349   Zr   0.34723   0.89296   0.83062   1.000
    Zr350   Zr   0.84723   0.39297   0.83062   1.000
    Zr351   Zr   0.84723   0.89295   0.83062   1.000
    Zr352   Zr   0.08021   0.45594   0.10626   1.000
    Zr353   Zr   0.08022   0.95593   0.10626   1.000
    Zr354   Zr   0.58022   0.45594   0.10620   1.000
    Zr355   Zr   0.58021   0.95593   0.10626   1.000
    Zr356   Zr   0.10700   0.45465   0.16387   1.000
    Zr357   Zr   0.10701   0.95464   0.16387   1.000
    Zr358   Zr   0.60701   0.45465   0.16387   1.000
    Zr359   Zr   0.60700   0.95464   0.16387   1.000
    O360    O    0.81425   0.95641   0.00412   1.000
    O361    O    0.86117   0.95496   0.03015   1.000
    O362    O    0.87803   0.95430   0.95835   1.000
    O363    O    0.81425   0.45642   0.00410   1.000
    O364    O    0.86117   0.45497   0.03010   1.000
    O365    O    0.87803   0.45431   0.95835   1.000
    O366    O    0.31425   0.95642   0.00412   1.000
    O367    O    0.36117   0.95497   0.03015   1.000
    O368    O    0.37803   0.95430   0.95835   1.000
    O369    O    0.31425   0.45642   0.00412   1.000
    O370    O    0.36117   0.45498   0.03010   1.000
    O371    O    0.37803   0.45431   0.95835   1.000
    O372    O    0.77289   0.46007   0.03915   1.000
    O373    O    0.76554   0.45878   0.98800   1.000
    O374    O    0.27289   0.46007   0.03921   1.000
    O375    O    0.26554   0.45878   0.98805   1.000
    O376    O    0.27290   0.96007   0.03921   1.000
    O377    O    0.26554   0.95878   0.98805   1.000
    O378    O    0.77289   0.96006   0.03921   1.000
    O379    O    0.76554   0.95877   0.98805   1.000
    O380    O    0.62823   0.45938   0.04127   1.000
    O381    O    0.62823   0.95938   0.04127   1.000
    O382    O    0.12823   0.95938   0.04127   1.000
    O383    O    0.12824   0.45939   0.04127   1.000
    O384    O    0.45882   0.26553   0.01190   1.000
    O385    O    0.45882   0.76553   0.01196   1.000
    O386    O    0.95882   0.76552   0.01197   1.000
    O387    O    0.95882   0.26553   0.01197   1.000
    O388    O    0.41477   0.43227   0.07176   1.000
    O389    O    0.35043   0.45762   0.08055   1.000
    O390    O    0.91477   0.43227   0.07176   1.000
    O391    O    0.85043   0.45762   0.08055   1.000
    O392    O    0.91477   0.93226   0.07180   1.000
    O393    O    0.85042   0.95761   0.08059   1.000
    O394    O    0.41477   0.93226   0.07180   1.000
    O395    O    0.35043   0.95761   0.08059   1.000
    O396    O    0.66523   0.96069   0.08096   1.000
    O397    O    0.60691   0.95781   0.08594   1.000
    O398    O    0.66523   0.46070   0.08096   1.000
    O399    O    0.60691   0.45782   0.08591   1.000
    O400    O    0.16523   0.96069   0.08096   1.000
    O401    O    0.10691   0.95782   0.08594   1.000
    O402    O    0.16523   0.46070   0.08096   1.000
    O403    O    0.10691   0.45782   0.08594   1.000
    O404    O    0.73064   0.46165   0.08320   1.000
    O405    O    0.79503   0.46059   0.08550   1.000
    O406    O    0.73063   0.96163   0.08324   1.000
    O407    O    0.79503   0.96058   0.08554   1.000
    O408    O    0.23064   0.46165   0.08324   1.000
    O409    O    0.29503   0.46059   0.08554   1.000
    O410    O    0.23064   0.96164   0.08324   1.000
    O411    O    0.29503   0.96059   0.08554   1.000
    O412    O    0.01727   0.93240   0.09479   1.000
    O413    O    0.92364   0.87804   0.12635   1.000
    O414    O    0.95432   0.87799   0.04033   1.000
    O415    O    0.01727   0.43241   0.09479   1.000
    O416    O    0.92364   0.37805   0.12635   1.000
    O417    O    0.95432   0.37800   0.04033   1.000
    O418    O    0.51727   0.93241   0.09479   1.000
    O419    O    0.42364   0.87804   0.12635   1.000
    O420    O    0.45432   0.87800   0.04033   1.000
    O421    O    0.51727   0.43242   0.09476   1.000
    O422    O    0.42365   0.37805   0.12635   1.000
    O423    O    0.45432   0.37801   0.04033   1.000
    O424    O    0.68691   0.46024   0.12728   1.000
    O425    O    0.18691   0.46024   0.12728   1.000
    O426    O    0.18691   0.96024   0.12728   1.000
    O427    O    0.68690   0.96023   0.12728   1.000
    O428    O    0.83068   0.95927   0.12495   1.000
    O429    O    0.83069   0.45928   0.12524   1.000
    O430    O    0.33069   0.45929   0.12524   1.000
    O431    O    0.33068   0.95927   0.12495   1.000
    O432    O    0.59361   0.45529   0.13504   1.000
    O433    O    0.09361   0.95528   0.13507   1.000
    O434    O    0.59361   0.95528   0.13507   1.000
    O435    O    0.09361   0.45529   0.13507   1.000
    O436    O    0.80708   0.76549   0.15482   1.000
    O437    O    0.30708   0.26551   0.15485   1.000
    O438    O    0.30708   0.76550   0.15485   1.000
    O439    O    0.80708   0.26550   0.15485   1.000
    O440    O    0.14199   0.45672   0.16106   1.000
    O441    O    0.19304   0.45904   0.17844   1.000
    O442    O    0.14199   0.95672   0.16106   1.000
    O443    O    0.19304   0.95904   0.17844   1.000
    O444    O    0.64199   0.45672   0.16106   1.000
    O445    O    0.69304   0.45905   0.17844   1.000
    O446    O    0.64198   0.95671   0.16106   1.000
    O447    O    0.69304   0.95903   0.17844   1.000
    O448    O    0.57623   0.95465   0.20692   1.000
    O449    O    0.57623   0.45467   0.20692   1.000
    O450    O    0.07623   0.95466   0.20689   1.000
    O451    O    0.07623   0.45466   0.20689   1.000
    O452    O    0.35803   0.81428   0.17221   1.000
    O453    O    0.40632   0.86127   0.19470   1.000
    O454    O    0.35803   0.31429   0.17221   1.000
    O455    O    0.40632   0.36128   0.19820   1.000
    O456    O    0.85803   0.31428   0.17221   1.000
    O457    O    0.90632   0.36128   0.19820   1.000
    O458    O    0.85803   0.81427   0.17221   1.000
    O459    O    0.90632   0.86127   0.19820   1.000
    O460    O    0.31317   0.27290   0.20601   1.000
    O461    O    0.31317   0.77289   0.20601   1.000
    O462    O    0.81317   0.27289   0.20601   1.000
    O463    O    0.81317   0.77289   0.20601   1.000
    O464    O    0.66926   0.12848   0.20808   1.000
    O465    O    0.16926   0.62847   0.20807   1.000
    O466    O    0.66926   0.62848   0.20808   1.000
    O467    O    0.16927   0.12849   0.20808   1.000
    O468    O    0.48257   0.91500   0.23499   1.000
    O469    O    0.39302   0.85053   0.24383   1.000
    O470    O    0.48257   0.41501   0.23849   1.000
    O471    O    0.39303   0.35054   0.24733   1.000
    O472    O    0.98257   0.41501   0.23845   1.000
    O473    O    0.89302   0.35054   0.24733   1.000
    O474    O    0.98257   0.91500   0.23845   1.000
    O475    O    0.89302   0.85053   0.24733   1.000
    O476    O    0.20501   0.66532   0.24776   1.000
    O477    O    0.14953   0.60711   0.25273   1.000
    O478    O    0.70501   0.66532   0.24778   1.000
    O479    O    0.64953   0.60711   0.25274   1.000
    O480    O    0.70501   0.16533   0.24778   1.000
    O481    O    0.64953   0.10712   0.25274   1.000
    O482    O    0.20501   0.16534   0.24777   1.000
    O483    O    0.14953   0.10712   0.25274   1.000
    O484    O    0.26945   0.73064   0.25005   1.000
    O485    O    0.33480   0.79507   0.25232   1.000
    O486    O    0.76945   0.73064   0.25006   1.000
    O487    O    0.83480   0.79507   0.25232   1.000
    O488    O    0.76945   0.23065   0.25006   1.000
    O489    O    0.83480   0.29508   0.25232   1.000
    O490    O    0.26945   0.23065   0.25005   1.000
    O491    O    0.33480   0.29509   0.25232   1.000
    O492    O    0.08508   0.01756   0.26148   1.000
    O493    O    0.04551   0.92389   0.29297   1.000
    O494    O    0.08508   0.51756   0.26148   1.000
    O495    O    0.04551   0.42390   0.29297   1.000
    O496    O    0.58508   0.51756   0.26151   1.000
    O497    O    0.54551   0.42390   0.29301   1.000
    O498    O    0.58508   0.01755   0.26151   1.000
    O499    O    0.54550   0.92388   0.29301   1.000
    O500    O    0.22721   0.18690   0.29409   1.000
    O501    O    0.22720   0.68688   0.29406   1.000
    O502    O    0.72721   0.18689   0.29410   1.000
    O503    O    0.72721   0.68688   0.29410   1.000
    O504    O    0.87172   0.83079   0.29200   1.000
    O505    O    0.87172   0.33080   0.29200   1.000
    O506    O    0.37172   0.83079   0.29200   1.000
    O507    O    0.37173   0.33080   0.29200   1.000
    O508    O    0.13880   0.09375   0.30186   1.000
    O509    O    0.13880   0.59374   0.30183   1.000
    O510    O    0.63880   0.09375   0.30186   1.000
    O511    O    0.63880   0.59374   0.30186   1.000
    O512    O    0.04128   0.80714   0.32142   1.000
    O513    O    0.54128   0.30714   0.32142   1.000
    O514    O    0.54128   0.80713   0.32142   1.000
    O515    O    0.04127   0.30714   0.32145   1.000
    O516    O    0.18581   0.64198   0.32780   1.000
    O517    O    0.23461   0.69290   0.34523   1.000
    O518    O    0.18582   0.14199   0.32787   1.000
    O519    O    0.23462   0.19291   0.34526   1.000
    O520    O    0.68582   0.64197   0.32787   1.000
    O521    O    0.73462   0.69289   0.34526   1.000
    O522    O    0.68582   0.14198   0.32787   1.000
    O523    O    0.73462   0.19290   0.34526   1.000
    O524    O    0.12201   0.57634   0.37366   1.000
    O525    O    0.62201   0.57634   0.37369   1.000
    O526    O    0.62201   0.07634   0.37369   1.000
    O527    O    0.12201   0.07635   0.37369   1.000
    O528    O    0.04352   0.85813   0.33884   1.000
    O529    O    0.04483   0.90644   0.36486   1.000
    O530    O    0.04351   0.35814   0.33884   1.000
    O531    O    0.04484   0.40645   0.36486   1.000
    O532    O    0.54352   0.35814   0.33882   1.000
    O533    O    0.54484   0.40645   0.36485   1.000
    O534    O    0.54351   0.85813   0.33882   1.000
    O535    O    0.54483   0.90644   0.36485   1.000
    O536    O    0.53994   0.81316   0.37259   1.000
    O537    O    0.53994   0.31318   0.37259   1.000
    O538    O    0.03994   0.31318   0.37261   1.000
    O539    O    0.03994   0.81317   0.37261   1.000
    O540    O    0.54092   0.66936   0.37467   1.000
    O541    O    0.54092   0.16937   0.37468   1.000
    O542    O    0.04092   0.66937   0.37468   1.000
    O543    O    0.04092   0.16938   0.37468   1.000
    O544    O    0.56762   0.48271   0.40519   1.000
    O545    O    0.54217   0.39305   0.41397   1.000
    O546    O    0.56762   0.98271   0.40519   1.000
    O547    O    0.54216   0.89304   0.41397   1.000
    O548    O    0.06762   0.48271   0.40519   1.000
    O549    O    0.04217   0.39306   0.41398   1.000
    O550    O    0.06762   0.98271   0.40519   1.000
    O551    O    0.04216   0.89305   0.41398   1.000
    O552    O    0.53951   0.70498   0.41435   1.000
    O553    O    0.54249   0.64960   0.41934   1.000
    O554    O    0.53951   0.20499   0.41436   1.000
    O555    O    0.54249   0.14961   0.41931   1.000
    O556    O    0.03951   0.70499   0.41437   1.000
    O557    O    0.04249   0.64960   0.41935   1.000
    O558    O    0.03951   0.20500   0.41437   1.000
    O559    O    0.04249   0.14961   0.41935   1.000
    O560    O    0.53842   0.76937   0.41664   1.000
    O561    O    0.53931   0.83474   0.41893   1.000
    O562    O    0.53843   0.26938   0.41664   1.000
    O563    O    0.53932   0.33475   0.41893   1.000
    O564    O    0.03842   0.76938   0.41665   1.000
    O565    O    0.03931   0.83474   0.41893   1.000
    O566    O    0.03843   0.26939   0.41665   1.000
    O567    O    0.03932   0.33476   0.41893   1.000
    O568    O    0.56776   0.58521   0.42819   1.000
    O569    O    0.62197   0.54562   0.45972   1.000
    O570    O    0.56776   0.08522   0.42816   1.000
    O571    O    0.62197   0.04563   0.45972   1.000
    O572    O    0.06776   0.58522   0.42819   1.000
    O573    O    0.12197   0.54563   0.45972   1.000
    O574    O    0.06776   0.08523   0.42819   1.000
    O575    O    0.12197   0.04564   0.45972   1.000
    O576    O    0.53989   0.72708   0.46068   1.000
    O577    O    0.53990   0.22709   0.46068   1.000
    O578    O    0.03990   0.22709   0.46069   1.000
    O579    O    0.03989   0.72708   0.46069   1.000
    O580    O    0.04050   0.37166   0.45863   1.000
    O581    O    0.04050   0.87165   0.45863   1.000
    O582    O    0.54049   0.87164   0.45863   1.000
    O583    O    0.54050   0.37165   0.45863   1.000
    O584    O    0.54501   0.13883   0.46844   1.000
    O585    O    0.04501   0.13883   0.46848   1.000
    O586    O    0.04501   0.63882   0.46844   1.000
    O587    O    0.54501   0.63882   0.46848   1.000
    O588    O    0.73440   0.54110   0.48817   1.000
    O589    O    0.73440   0.04110   0.48817   1.000
    O590    O    0.23441   0.54111   0.48817   1.000
    O591    O    0.23441   0.04112   0.48817   1.000
    O592    O    0.54348   0.68571   0.49447   1.000
    O593    O    0.54107   0.73440   0.51185   1.000
    O594    O    0.54348   0.18572   0.49447   1.000
    O595    O    0.54107   0.23441   0.51185   1.000
    O596    O    0.04348   0.68572   0.49443   1.000
    O597    O    0.04107   0.73440   0.51185   1.000
    O598    O    0.04349   0.18573   0.49448   1.000
    O599    O    0.04107   0.23441   0.51185   1.000
    O600    O    0.04563   0.62200   0.54025   1.000
    O601    O    0.54563   0.12200   0.54029   1.000
    O602    O    0.54563   0.62199   0.54029   1.000
    O603    O    0.04563   0.12201   0.54030   1.000
    O604    O    0.68570   0.04350   0.50555   1.000
    O605    O    0.63879   0.04501   0.53154   1.000
    O606    O    0.18571   0.04351   0.50555   1.000
    O607    O    0.13880   0.04502   0.53154   1.000
    O608    O    0.18571   0.54350   0.50555   1.000
    O609    O    0.13880   0.54501   0.53154   1.000
    O610    O    0.68570   0.54349   0.50555   1.000
    O611    O    0.63879   0.54500   0.53154   1.000
    O612    O    0.72708   0.53992   0.53934   1.000
    O613    O    0.72708   0.03992   0.53934   1.000
    O614    O    0.22708   0.53993   0.53934   1.000
    O615    O    0.22708   0.03994   0.53934   1.000
    O616    O    0.87166   0.04056   0.54138   1.000
    O617    O    0.37166   0.04056   0.54138   1.000
    O618    O    0.37166   0.54056   0.54138   1.000
    O619    O    0.87166   0.54055   0.54138   1.000
    O620    O    0.58521   0.56777   0.57183   1.000
    O621    O    0.64957   0.54246   0.58067   1.000
    O622    O    0.58521   0.06779   0.57183   1.000
    O623    O    0.64957   0.04248   0.58067   1.000
    O624    O    0.08521   0.56778   0.57183   1.000
    O625    O    0.14957   0.54247   0.58067   1.000
    O626    O    0.08521   0.06779   0.57183   1.000
    O627    O    0.14957   0.04248   0.58067   1.000
    O628    O    0.33474   0.53935   0.58109   1.000
    O629    O    0.39305   0.54221   0.58604   1.000
    O630    O    0.83474   0.03935   0.58109   1.000
    O631    O    0.89305   0.04221   0.58604   1.000
    O632    O    0.83474   0.53934   0.58109   1.000
    O633    O    0.89305   0.54220   0.58604   1.000
    O634    O    0.33475   0.03936   0.58109   1.000
    O635    O    0.39306   0.04222   0.58604   1.000
    O636    O    0.26936   0.03844   0.58338   1.000
    O637    O    0.20496   0.03951   0.58565   1.000
    O638    O    0.76936   0.53843   0.58338   1.000
    O639    O    0.70496   0.53949   0.58565   1.000
    O640    O    0.76936   0.03844   0.58338   1.000
    O641    O    0.70496   0.03950   0.58565   1.000
    O642    O    0.26936   0.53843   0.58338   1.000
    O643    O    0.20496   0.53950   0.58565   1.000
    O644    O    0.98271   0.06765   0.59483   1.000
    O645    O    0.07635   0.12204   0.62632   1.000
    O646    O    0.98271   0.56764   0.59483   1.000
    O647    O    0.07635   0.62203   0.62632   1.000
    O648    O    0.48271   0.06765   0.59483   1.000
    O649    O    0.57635   0.12204   0.62632   1.000
    O650    O    0.48271   0.56764   0.59483   1.000
    O651    O    0.57635   0.62203   0.62632   1.000
    O652    O    0.31315   0.03994   0.62741   1.000
    O653    O    0.31315   0.53992   0.62741   1.000
    O654    O    0.81315   0.03993   0.62741   1.000
    O655    O    0.81315   0.53992   0.62741   1.000
    O656    O    0.16932   0.04089   0.62534   1.000
    O657    O    0.16932   0.54089   0.62534   1.000
    O658    O    0.66933   0.04090   0.62530   1.000
    O659    O    0.66932   0.54089   0.62530   1.000
    O660    O    0.90644   0.04486   0.63516   1.000
    O661    O    0.40644   0.54485   0.63516   1.000
    O662    O    0.40644   0.04486   0.63516   1.000
    O663    O    0.90644   0.54485   0.63516   1.000
    O664    O    0.19290   0.23466   0.65473   1.000
    O665    O    0.69290   0.73465   0.65473   1.000
    O666    O    0.19290   0.73465   0.65476   1.000
    O667    O    0.69290   0.23466   0.65473   1.000
    O668    O    0.85812   0.54351   0.66118   1.000
    O669    O    0.80710   0.54124   0.67858   1.000
    O670    O    0.85812   0.04351   0.66118   1.000
    O671    O    0.80710   0.04125   0.67858   1.000
    O672    O    0.35812   0.54351   0.66118   1.000
    O673    O    0.30710   0.54125   0.67858   1.000
    O674    O    0.35812   0.04352   0.66118   1.000
    O675    O    0.30711   0.04126   0.67858   1.000
    O676    O    0.42389   0.04552   0.70700   1.000
    O677    O    0.42389   0.54551   0.70700   1.000
    O678    O    0.92389   0.04552   0.70700   1.000
    O679    O    0.92389   0.54551   0.70700   1.000
    O680    O    0.64199   0.18586   0.67212   1.000
    O681    O    0.59375   0.13883   0.69815   1.000
    O682    O    0.64198   0.68584   0.67215   1.000
    O683    O    0.59375   0.63882   0.69815   1.000
    O684    O    0.14199   0.18585   0.67215   1.000
    O685    O    0.09375   0.13883   0.69815   1.000
    O686    O    0.14198   0.68585   0.67215   1.000
    O687    O    0.09375   0.63882   0.69815   1.000
    O688    O    0.68689   0.22724   0.70590   1.000
    O689    O    0.18689   0.22724   0.70592   1.000
    O690    O    0.18689   0.72723   0.70592   1.000
    O691    O    0.68689   0.72723   0.70592   1.000
    O692    O    0.33081   0.87172   0.70802   1.000
    O693    O    0.83081   0.87172   0.70802   1.000
    O694    O    0.83081   0.37173   0.70802   1.000
    O695    O    0.33081   0.37173   0.70802   1.000
    O696    O    0.01756   0.08510   0.73850   1.000
    O697    O    0.10712   0.14955   0.74723   1.000
    O698    O    0.01756   0.58509   0.73850   1.000
    O699    O    0.10712   0.64954   0.74727   1.000
    O700    O    0.51756   0.08510   0.73850   1.000
    O701    O    0.60713   0.14955   0.74727   1.000
    O702    O    0.51756   0.58509   0.73850   1.000
    O703    O    0.60712   0.64954   0.74723   1.000
    O704    O    0.29509   0.83480   0.74770   1.000
    O705    O    0.35056   0.89302   0.75269   1.000
    O706    O    0.79509   0.83480   0.74770   1.000
    O707    O    0.85055   0.89301   0.75269   1.000
    O708    O    0.79509   0.33481   0.74770   1.000
    O709    O    0.85056   0.39303   0.75269   1.000
    O710    O    0.29509   0.33481   0.74770   1.000
    O711    O    0.35056   0.39303   0.75269   1.000
    O712    O    0.73066   0.26946   0.74996   1.000
    O713    O    0.66534   0.20502   0.75224   1.000
    O714    O    0.73066   0.76945   0.74996   1.000
    O715    O    0.66534   0.70501   0.75220   1.000
    O716    O    0.23066   0.76946   0.74996   1.000
    O717    O    0.16534   0.70501   0.75224   1.000
    O718    O    0.23066   0.26946   0.74996   1.000
    O719    O    0.16534   0.20502   0.75220   1.000
    O720    O    0.91503   0.48256   0.76152   1.000
    O721    O    0.95468   0.57621   0.79309   1.000
    O722    O    0.91503   0.98256   0.76152   1.000
    O723    O    0.95467   0.07622   0.79309   1.000
    O724    O    0.41503   0.48256   0.76152   1.000
    O725    O    0.45467   0.57622   0.79309   1.000
    O726    O    0.41503   0.98257   0.76152   1.000
    O727    O    0.45468   0.07623   0.79309   1.000
    O728    O    0.77292   0.81316   0.79401   1.000
    O729    O    0.77292   0.31317   0.79401   1.000
    O730    O    0.27292   0.81317   0.79401   1.000
    O731    O    0.27292   0.31317   0.79401   1.000
    O732    O    0.12849   0.16927   0.79189   1.000
    O733    O    0.62848   0.66926   0.79189   1.000
    O734    O    0.12849   0.66926   0.79193   1.000
    O735    O    0.62849   0.16927   0.79193   1.000
    O736    O    0.36130   0.90631   0.80182   1.000
    O737    O    0.86131   0.40632   0.80182   1.000
    O738    O    0.86130   0.90631   0.80182   1.000
    O739    O    0.36130   0.40632   0.80182   1.000
    O740    O    0.45902   0.19300   0.82157   1.000
    O741    O    0.45902   0.69299   0.82157   1.000
    O742    O    0.95902   0.69299   0.82154   1.000
    O743    O    0.95902   0.19300   0.82157   1.000
    O744    O    0.31431   0.35804   0.82780   1.000
    O745    O    0.26554   0.30708   0.84517   1.000
    O746    O    0.31431   0.85803   0.82780   1.000
    O747    O    0.26553   0.80707   0.84517   1.000
    O748    O    0.81431   0.35803   0.82780   1.000
    O749    O    0.76554   0.30708   0.84517   1.000
    O750    O    0.81431   0.85802   0.82780   1.000
    O751    O    0.76553   0.80707   0.84517   1.000
    O752    O    0.87807   0.92363   0.87366   1.000
    O753    O    0.87808   0.42364   0.87366   1.000
    O754    O    0.37807   0.92364   0.87366   1.000
    O755    O    0.37808   0.42364   0.87366   1.000
    O756    O    0.95672   0.14196   0.83895   1.000
    O757    O    0.95531   0.09359   0.86495   1.000
    O758    O    0.95672   0.64195   0.83892   1.000
    O759    O    0.95531   0.59359   0.86495   1.000
    O760    O    0.45672   0.64195   0.83895   1.000
    O761    O    0.45531   0.59359   0.86492   1.000
    O762    O    0.45672   0.14197   0.83895   1.000
    O763    O    0.45531   0.09360   0.86492   1.000
    O764    O    0.96023   0.68686   0.87271   1.000
    O765    O    0.96023   0.18687   0.87274   1.000
    O766    O    0.46023   0.68687   0.87274   1.000
    O767    O    0.46023   0.18688   0.87273   1.000
    O768    O    0.45926   0.83063   0.87476   1.000
    O769    O    0.45927   0.33065   0.87477   1.000
    O770    O    0.95927   0.33064   0.87477   1.000
    O771    O    0.95926   0.83063   0.87477   1.000
    O772    O    0.43244   0.01726   0.90520   1.000
    O773    O    0.45787   0.10691   0.91385   1.000
    O774    O    0.43244   0.51726   0.90520   1.000
    O775    O    0.45786   0.60690   0.91405   1.000
    O776    O    0.93244   0.01725   0.90523   1.000
    O777    O    0.95787   0.10691   0.91408   1.000
    O778    O    0.93244   0.51726   0.90523   1.000
    O779    O    0.95786   0.60690   0.91408   1.000
    O780    O    0.46058   0.79499   0.91446   1.000
    O781    O    0.45760   0.85037   0.91941   1.000
    O782    O    0.96059   0.79499   0.91448   1.000
    O783    O    0.95761   0.85037   0.91943   1.000
    O784    O    0.96059   0.29500   0.91448   1.000
    O785    O    0.95761   0.35038   0.91943   1.000
    O786    O    0.46059   0.29500   0.91448   1.000
    O787    O    0.45761   0.35039   0.91943   1.000
    O788    O    0.46166   0.23061   0.91677   1.000
    O789    O    0.46073   0.16522   0.91885   1.000
    O790    O    0.46165   0.73060   0.91675   1.000
    O791    O    0.46073   0.66521   0.91905   1.000
    O792    O    0.96165   0.23061   0.91678   1.000
    O793    O    0.96073   0.16521   0.91906   1.000
    O794    O    0.96165   0.73060   0.91678   1.000
    O795    O    0.96073   0.66520   0.91906   1.000
    O796    O    0.93229   0.91474   0.92822   1.000
    O797    O    0.43229   0.41475   0.92822   1.000
    O798    O    0.43229   0.91474   0.92820   1.000
    O799    O    0.93229   0.41475   0.92822   1.000
    O800    O    0.46010   0.77286   0.96079   1.000
    O801    O    0.46010   0.27288   0.96077   1.000
    O802    O    0.96010   0.27287   0.96081   1.000
    O803    O    0.96010   0.77286   0.96081   1.000
    O804    O    0.45944   0.12824   0.95855   1.000
    O805    O    0.45943   0.62822   0.95874   1.000
    O806    O    0.95944   0.62822   0.95875   1.000
    O807    O    0.95944   0.12823   0.95875   1.000
    O808    O    0.45498   0.86114   0.96852   1.000
    O809    O    0.95498   0.86113   0.96854   1.000
    O810    O    0.45499   0.36115   0.96854   1.000
    O811    O    0.95499   0.36114   0.96854   1.000
    O812    O    0.45645   0.31423   0.99452   1.000
    O813    O    0.45645   0.81422   0.99456   1.000
    O814    O    0.95645   0.31423   0.99456   1.000
    O815    O    0.95645   0.81422   0.99456   1.000
loop_
    _geom_bond_atom_site_label_1
    _geom_bond_atom_site_label_2
    _geom_bond_distance
    _geom_bond_site_symmetry_2
    _ccdc_geom_bond_type
    Zr287  O360      0.67886      .   S
    Zr155  O360      0.67886      .   S
    Zr287  O361      0.71355      .   S
    Zr283  O361      0.71355      .   S
    Zr287  O362      1.09777  1_554   S
    Zr19   O362      1.09777      .   S
    Zr286  O363      0.67880      .   S
    Zr154  O363      0.67880      .   S
    Zr286  O364      0.71264      .   S
    Zr282  O364      0.71264      .   S
    Zr286  O365      1.09778  1_554   S
    Zr18   O365      1.09778      .   S
    Zr285  O366      0.67886      .   S
    Zr153  O366      0.67886      .   S
    Zr285  O367      0.71356      .   S
    Zr281  O367      0.71356      .   S
    Zr285  O368      1.09777  1_554   S
    Zr17   O368      1.09777      .   S
    Zr284  O369      0.67887      .   S
    Zr152  O369      0.67887      .   S
    Zr284  O370      0.71264      .   S
    Zr280  O370      0.71264      .   S
    Zr284  O371      1.09776  1_554   S
    Zr16   O371      1.09776      .   S
    Zr154  O372      0.70224      .   S
    Zr146  O372      0.70224      .   S
    Zr154  O373      0.54316  1_554   S
    Zr46   O373      0.54316      .   S
    Zr152  O374      0.70266      .   S
    Zr144  O374      0.70266      .   S
    Zr152  O375      0.54299  1_554   S
    Zr44   O375      0.54299      .   S
    Zr153  O376      0.70266      .   S
    Zr145  O376      0.70266      .   S
    Zr153  O377      0.54299  1_554   S
    Zr45   O377      0.54299      .   S
    Zr155  O378      0.70267      .   S
    Zr147  O378      0.70267      .   S
    Zr155  O379      0.54299  1_554   S
    Zr47   O379      0.54299      .   S
    Zr114  O380      0.54299      .   S
    Zr258  O380      0.54299      .   S
    Zr115  O381      0.54299      .   S
    Zr259  O381      0.54299      .   S
    Zr113  O382      0.54299      .   S
    Zr257  O382      0.54299      .   S
    Zr112  O383      0.54299      .   S
    Zr256  O383      0.54299      .   S
    Zr76   O384      0.54311      .   S
    Zr200  O384      0.54311  1_556   S
    Zr77   O385      0.54293      .   S
    Zr201  O385      0.54293  1_556   S
    Zr79   O386      0.54293      .   S
    Zr203  O386      0.54293  1_556   S
    Zr78   O387      0.54293      .   S
    Zr202  O387      0.54293  1_556   S
    Zr280  O388      1.11929      .   S
    Zr8    O388      1.11929      .   S
    Zr280  O389      0.67792      .   S
    Zr148  O389      0.67792      .   S
    Zr282  O390      1.11929      .   S
    Zr10   O390      1.11929      .   S
    Zr282  O391      0.67793      .   S
    Zr150  O391      0.67793      .   S
    Zr283  O392      1.11907      .   S
    Zr11   O392      1.11907      .   S
    Zr283  O393      0.67727      .   S
    Zr151  O393      0.67727      .   S
    Zr281  O394      1.11907      .   S
    Zr9    O394      1.11907      .   S
    Zr281  O395      0.67728      .   S
    Zr149  O395      0.67728      .   S
    Zr259  O396      0.70173      .   S
    Zr255  O396      0.70173      .   S
    Zr259  O397      0.67734      .   S
    Zr355  O397      0.67734      .   S
    Zr258  O398      0.70173      .   S
    Zr254  O398      0.70173      .   S
    Zr258  O399      0.67690      .   S
    Zr354  O399      0.67690      .   S
    Zr257  O400      0.70173      .   S
    Zr253  O400      0.70173      .   S
    Zr257  O401      0.67733      .   S
    Zr353  O401      0.67733      .   S
    Zr256  O402      0.70173      .   S
    Zr252  O402      0.70173      .   S
    Zr256  O403      0.67734      .   S
    Zr352  O403      0.67734      .   S
    Zr146  O404      0.72807      .   S
    Zr254  O404      0.72807      .   S
    Zr146  O405      0.70213      .   S
    Zr150  O405      0.70213      .   S
    Zr147  O406      0.72773      .   S
    Zr255  O406      0.72773      .   S
    Zr147  O407      0.70171      .   S
    Zr151  O407      0.70171      .   S
    Zr144  O408      0.72772      .   S
    Zr252  O408      0.72772      .   S
    Zr144  O409      0.70171      .   S
    Zr148  O409      0.70171      .   S
    Zr145  O410      0.72772      .   S
    Zr253  O410      0.72772      .   S
    Zr145  O411      0.70171      .   S
    Zr149  O411      0.70171      .   S
    Zr11   O412      1.11915  1_655   S
    Zr353  O412      1.11915      .   S
    Zr11   O413      1.12206      .   S
    Zr295  O413      1.12206      .   S
    Zr11   O414      1.12216      .   S
    Zr319  O414      1.12216  1_556   S
    Zr10   O415      1.11914  1_655   S
    Zr352  O415      1.11914      .   S
    Zr10   O416      1.12206      .   S
    Zr294  O416      1.12206      .   S
    Zr10   O417      1.12216      .   S
    Zr318  O417      1.12216  1_556   S
    Zr9    O418      1.11913      .   S
    Zr355  O418      1.11913      .   S
    Zr9    O419      1.12207      .   S
    Zr293  O419      1.12207      .   S
    Zr9    O420      1.12216      .   S
    Zr317  O420      1.12216  1_556   S
    Zr8    O421      1.11899      .   S
    Zr354  O421      1.11899      .   S
    Zr8    O422      1.12206      .   S
    Zr292  O422      1.12206      .   S
    Zr8    O423      1.12216      .   S
    Zr316  O423      1.12216  1_556   S
    Zr254  O424      0.70264      .   S
    Zr262  O424      0.70264      .   S
    Zr252  O425      0.70264      .   S
    Zr260  O425      0.70264      .   S
    Zr253  O426      0.70264      .   S
    Zr261  O426      0.70264      .   S
    Zr255  O427      0.70264      .   S
    Zr263  O427      0.70264      .   S
    Zr151  O428      0.53657      .   S
    Zr43   O428      0.53657      .   S
    Zr150  O429      0.54291      .   S
    Zr42   O429      0.54291      .   S
    Zr148  O430      0.54291      .   S
    Zr40   O430      0.54291      .   S
    Zr149  O431      0.53657      .   S
    Zr41   O431      0.53657      .   S
    Zr354  O432      0.68723      .   S
    Zr358  O432      0.68723      .   S
    Zr353  O433      0.68662      .   S
    Zr357  O433      0.68662      .   S
    Zr355  O434      0.68663      .   S
    Zr359  O434      0.68663      .   S
    Zr352  O435      0.68663      .   S
    Zr356  O435      0.68663      .   S
    Zr55   O436      0.54366      .   S
    Zr167  O436      0.54366      .   S
    Zr52   O437      0.54312      .   S
    Zr164  O437      0.54312      .   S
    Zr53   O438      0.54312      .   S
    Zr165  O438      0.54312      .   S
    Zr54   O439      0.54312      .   S
    Zr166  O439      0.54312      .   S
    Zr260  O440      0.67560      .   S
    Zr356  O440      0.67560      .   S
    Zr260  O441      0.54309      .   S
    Zr116  O441      0.54309      .   S
    Zr261  O442      0.67560      .   S
    Zr357  O442      0.67560      .   S
    Zr261  O443      0.54309      .   S
    Zr117  O443      0.54309      .   S
    Zr262  O444      0.67560      .   S
    Zr358  O444      0.67560      .   S
    Zr262  O445      0.54309      .   S
    Zr118  O445      0.54309      .   S
    Zr263  O446      0.67560      .   S
    Zr359  O446      0.67560      .   S
    Zr263  O447      0.54308      .   S
    Zr119  O447      0.54308      .   S
    Zr359  O448      1.12226      .   S
    Zr15   O448      1.12226      .   S
    Zr358  O449      1.12225      .   S
    Zr14   O449      1.12225      .   S
    Zr357  O450      1.12161      .   S
    Zr13   O450      1.12161      .   S
    Zr356  O451      1.12162      .   S
    Zr12   O451      1.12162      .   S
    Zr293  O452      0.67561      .   S
    Zr165  O452      0.67561      .   S
    Zr293  O453      0.61711      .   S
    Zr289  O453      0.61711      .   S
    Zr292  O454      0.67561      .   S
    Zr164  O454      0.67561      .   S
    Zr292  O455      0.68672      .   S
    Zr288  O455      0.68672      .   S
    Zr294  O456      0.67561      .   S
    Zr166  O456      0.67561      .   S
    Zr294  O457      0.68673      .   S
    Zr290  O457      0.68673      .   S
    Zr295  O458      0.67561      .   S
    Zr167  O458      0.67561      .   S
    Zr295  O459      0.68673      .   S
    Zr291  O459      0.68673      .   S
    Zr164  O460      0.70271      .   S
    Zr156  O460      0.70271      .   S
    Zr165  O461      0.70261      .   S
    Zr157  O461      0.70261      .   S
    Zr166  O462      0.70271      .   S
    Zr158  O462      0.70271      .   S
    Zr167  O463      0.70271      .   S
    Zr159  O463      0.70271      .   S
    Zr82   O464      0.54295      .   S
    Zr210  O464      0.54295      .   S
    Zr81   O465      0.54262      .   S
    Zr209  O465      0.54262      .   S
    Zr83   O466      0.54295      .   S
    Zr211  O466      0.54295      .   S
    Zr80   O467      0.54295      .   S
    Zr208  O467      0.54295      .   S
    Zr289  O468      1.13891      .   S
    Zr15   O468      1.13891      .   S
    Zr289  O469      0.72995      .   S
    Zr161  O469      0.72995      .   S
    Zr288  O470      1.11926      .   S
    Zr14   O470      1.11926      .   S
    Zr288  O471      0.67731      .   S
    Zr160  O471      0.67731      .   S
    Zr290  O472      1.11910      .   S
    Zr12   O472      1.11910  1_455   S
    Zr290  O473      0.67732      .   S
    Zr162  O473      0.67732      .   S
    Zr291  O474      1.11911      .   S
    Zr13   O474      1.11911  1_455   S
    Zr291  O475      0.67732      .   S
    Zr163  O475      0.67732      .   S
    Zr209  O476      0.70186      .   S
    Zr205  O476      0.70186      .   S
    Zr209  O477      0.67754      .   S
    Zr321  O477      0.67754      .   S
    Zr211  O478      0.70175      .   S
    Zr207  O478      0.70175      .   S
    Zr211  O479      0.67733      .   S
    Zr323  O479      0.67733      .   S
    Zr210  O480      0.70175      .   S
    Zr206  O480      0.70175      .   S
    Zr210  O481      0.67733      .   S
    Zr322  O481      0.67733      .   S
    Zr208  O482      0.70159      .   S
    Zr204  O482      0.70159      .   S
    Zr208  O483      0.67733      .   S
    Zr320  O483      0.67733      .   S
    Zr157  O484      0.72773      .   S
    Zr205  O484      0.72773      .   S
    Zr157  O485      0.70177      .   S
    Zr161  O485      0.70177      .   S
    Zr159  O486      0.72773      .   S
    Zr207  O486      0.72773      .   S
    Zr159  O487      0.70172      .   S
    Zr163  O487      0.70172      .   S
    Zr158  O488      0.72772      .   S
    Zr206  O488      0.72772      .   S
    Zr158  O489      0.70172      .   S
    Zr162  O489      0.70172      .   S
    Zr156  O490      0.72760      .   S
    Zr204  O490      0.72760      .   S
    Zr156  O491      0.70172      .   S
    Zr160  O491      0.70172      .   S
    Zr13   O492      1.11970  1_565   S
    Zr320  O492      1.11970      .   S
    Zr13   O493      1.12289      .   S
    Zr277  O493      1.12289      .   S
    Zr12   O494      1.11953      .   S
    Zr321  O494      1.11953      .   S
    Zr12   O495      1.12288      .   S
    Zr276  O495      1.12288      .   S
    Zr14   O496      1.11936      .   S
    Zr323  O496      1.11936      .   S
    Zr14   O497      1.12226      .   S
    Zr278  O497      1.12226      .   S
    Zr15   O498      1.11953  1_565   S
    Zr322  O498      1.11953      .   S
    Zr15   O499      1.12226      .   S
    Zr279  O499      1.12226      .   S
    Zr204  O500      0.70294      .   S
    Zr212  O500      0.70294      .   S
    Zr205  O501      0.70199      .   S
    Zr213  O501      0.70199      .   S
    Zr206  O502      0.70263      .   S
    Zr214  O502      0.70263      .   S
    Zr207  O503      0.70263      .   S
    Zr215  O503      0.70263      .   S
    Zr163  O504      0.54291      .   S
    Zr51   O504      0.54291      .   S
    Zr162  O505      0.54291      .   S
    Zr50   O505      0.54291      .   S
    Zr161  O506      0.54291      .   S
    Zr49   O506      0.54291      .   S
    Zr160  O507      0.54291      .   S
    Zr48   O507      0.54291      .   S
    Zr320  O508      0.68672      .   S
    Zr324  O508      0.68672      .   S
    Zr321  O509      0.68602      .   S
    Zr325  O509      0.68602      .   S
    Zr322  O510      0.68672      .   S
    Zr326  O510      0.68672      .   S
    Zr323  O511      0.68672      .   S
    Zr327  O511      0.68672      .   S
    Zr37   O512      0.54353      .   S
    Zr141  O512      0.54353      .   S
    Zr38   O513      0.54281      .   S
    Zr142  O513      0.54281      .   S
    Zr39   O514      0.54281      .   S
    Zr143  O514      0.54281      .   S
    Zr36   O515      0.54308      .   S
    Zr140  O515      0.54308      .   S
    Zr213  O516      0.67562      .   S
    Zr325  O516      0.67562      .   S
    Zr213  O517      0.54369      .   S
    Zr85   O517      0.54369      .   S
    Zr212  O518      0.67562      .   S
    Zr324  O518      0.67562      .   S
    Zr212  O519      0.54306      .   S
    Zr84   O519      0.54306      .   S
    Zr215  O520      0.67563      .   S
    Zr327  O520      0.67563      .   S
    Zr215  O521      0.54306      .   S
    Zr87   O521      0.54306      .   S
    Zr214  O522      0.67563      .   S
    Zr326  O522      0.67563      .   S
    Zr214  O523      0.54306      .   S
    Zr86   O523      0.54306      .   S
    Zr325  O524      1.12267      .   S
    Zr5    O524      1.12267      .   S
    Zr327  O525      1.12204      .   S
    Zr7    O525      1.12204      .   S
    Zr326  O526      1.12204      .   S
    Zr6    O526      1.12204      .   S
    Zr324  O527      1.12203      .   S
    Zr4    O527      1.12203      .   S
    Zr277  O528      0.67560      .   S
    Zr141  O528      0.67560      .   S
    Zr277  O529      0.68677      .   S
    Zr273  O529      0.68677      .   S
    Zr276  O530      0.67560      .   S
    Zr140  O530      0.67560      .   S
    Zr276  O531      0.68677      .   S
    Zr272  O531      0.68677      .   S
    Zr278  O532      0.67556      .   S
    Zr142  O532      0.67556      .   S
    Zr278  O533      0.68667      .   S
    Zr274  O533      0.68667      .   S
    Zr279  O534      0.67557      .   S
    Zr143  O534      0.67557      .   S
    Zr279  O535      0.68667      .   S
    Zr275  O535      0.68667      .   S
    Zr143  O536      0.70307      .   S
    Zr135  O536      0.70307      .   S
    Zr142  O537      0.70307      .   S
    Zr134  O537      0.70307      .   S
    Zr140  O538      0.70265      .   S
    Zr132  O538      0.70265      .   S
    Zr141  O539      0.70265      .   S
    Zr133  O539      0.70265      .   S
    Zr99   O540      0.54266      .   S
    Zr235  O540      0.54266      .   S
    Zr98   O541      0.54288      .   S
    Zr234  O541      0.54288      .   S
    Zr97   O542      0.54298      .   S
    Zr233  O542      0.54298      .   S
    Zr96   O543      0.54299      .   S
    Zr232  O543      0.54299      .   S
    Zr274  O544      1.11910      .   S
    Zr7    O544      1.11910      .   S
    Zr274  O545      0.67736      .   S
    Zr138  O545      0.67736      .   S
    Zr275  O546      1.11929      .   S
    Zr6    O546      1.11929  1_545   S
    Zr275  O547      0.67736      .   S
    Zr139  O547      0.67736      .   S
    Zr272  O548      1.11909      .   S
    Zr5    O548      1.11909      .   S
    Zr272  O549      0.67728      .   S
    Zr136  O549      0.67728      .   S
    Zr273  O550      1.11926      .   S
    Zr4    O550      1.11926  1_545   S
    Zr273  O551      0.67729      .   S
    Zr137  O551      0.67729      .   S
    Zr235  O552      0.70184      .   S
    Zr231  O552      0.70184      .   S
    Zr235  O553      0.67754      .   S
    Zr339  O553      0.67754      .   S
    Zr234  O554      0.70174      .   S
    Zr230  O554      0.70174      .   S
    Zr234  O555      0.67689      .   S
    Zr338  O555      0.67689      .   S
    Zr233  O556      0.70174      .   S
    Zr229  O556      0.70174      .   S
    Zr233  O557      0.67733      .   S
    Zr337  O557      0.67733      .   S
    Zr232  O558      0.70173      .   S
    Zr228  O558      0.70173      .   S
    Zr232  O559      0.67734      .   S
    Zr336  O559      0.67734      .   S
    Zr135  O560      0.72769      .   S
    Zr231  O560      0.72769      .   S
    Zr135  O561      0.70172      .   S
    Zr139  O561      0.70172      .   S
    Zr134  O562      0.72771      .   S
    Zr230  O562      0.72771      .   S
    Zr134  O563      0.70172      .   S
    Zr138  O563      0.70172      .   S
    Zr133  O564      0.72774      .   S
    Zr229  O564      0.72774      .   S
    Zr133  O565      0.70172      .   S
    Zr137  O565      0.70172      .   S
    Zr132  O566      0.72774      .   S
    Zr228  O566      0.72774      .   S
    Zr132  O567      0.70172      .   S
    Zr136  O567      0.70172      .   S
    Zr7    O568      1.11920      .   S
    Zr339  O568      1.11920      .   S
    Zr7    O569      1.12215      .   S
    Zr311  O569      1.12215      .   S
    Zr6    O570      1.11901      .   S
    Zr338  O570      1.11901      .   S
    Zr6    O571      1.12215      .   S
    Zr310  O571      1.12215      .   S
    Zr5    O572      1.11919      .   S
    Zr337  O572      1.11919      .   S
    Zr5    O573      1.12217      .   S
    Zr309  O573      1.12217      .   S
    Zr4    O574      1.11918      .   S
    Zr336  O574      1.11918      .   S
    Zr4    O575      1.12217      .   S
    Zr308  O575      1.12217      .   S
    Zr231  O576      0.70273      .   S
    Zr239  O576      0.70273      .   S
    Zr230  O577      0.70273      .   S
    Zr238  O577      0.70273      .   S
    Zr228  O578      0.70263      .   S
    Zr236  O578      0.70263      .   S
    Zr229  O579      0.70263      .   S
    Zr237  O579      0.70263      .   S
    Zr136  O580      0.54294      .   S
    Zr32   O580      0.54294      .   S
    Zr137  O581      0.54295      .   S
    Zr33   O581      0.54295      .   S
    Zr139  O582      0.54294      .   S
    Zr35   O582      0.54294      .   S
    Zr138  O583      0.54294      .   S
    Zr34   O583      0.54294      .   S
    Zr338  O584      0.68733      .   S
    Zr342  O584      0.68733      .   S
    Zr336  O585      0.68673      .   S
    Zr340  O585      0.68673      .   S
    Zr337  O586      0.68582      .   S
    Zr341  O586      0.68582      .   S
    Zr339  O587      0.68663      .   S
    Zr343  O587      0.68663      .   S
    Zr71   O588      0.54313      .   S
    Zr191  O588      0.54313      .   S
    Zr70   O589      0.54313      .   S
    Zr190  O589      0.54313      .   S
    Zr69   O590      0.54313      .   S
    Zr189  O590      0.54313      .   S
    Zr68   O591      0.54313      .   S
    Zr188  O591      0.54313      .   S
    Zr239  O592      0.67563      .   S
    Zr343  O592      0.67563      .   S
    Zr239  O593      0.54305      .   S
    Zr103  O593      0.54305      .   S
    Zr238  O594      0.67563      .   S
    Zr342  O594      0.67563      .   S
    Zr238  O595      0.54305      .   S
    Zr102  O595      0.54305      .   S
    Zr237  O596      0.67555      .   S
    Zr341  O596      0.67555      .   S
    Zr237  O597      0.54314      .   S
    Zr101  O597      0.54314      .   S
    Zr236  O598      0.67563      .   S
    Zr340  O598      0.67563      .   S
    Zr236  O599      0.54314      .   S
    Zr100  O599      0.54314      .   S
    Zr341  O600      1.12289      .   S
    Zr21   O600      1.12289      .   S
    Zr342  O601      1.12214      .   S
    Zr22   O601      1.12214      .   S
    Zr343  O602      1.12215      .   S
    Zr23   O602      1.12215      .   S
    Zr340  O603      1.12207      .   S
    Zr20   O603      1.12207      .   S
    Zr310  O604      0.67563      .   S
    Zr190  O604      0.67563      .   S
    Zr310  O605      0.68672      .   S
    Zr306  O605      0.68672      .   S
    Zr308  O606      0.67563      .   S
    Zr188  O606      0.67563      .   S
    Zr308  O607      0.68673      .   S
    Zr304  O607      0.68673      .   S
    Zr309  O608      0.67563      .   S
    Zr189  O608      0.67563      .   S
    Zr309  O609      0.68672      .   S
    Zr305  O609      0.68672      .   S
    Zr311  O610      0.67563      .   S
    Zr191  O610      0.67563      .   S
    Zr311  O611      0.68672      .   S
    Zr307  O611      0.68672      .   S
    Zr191  O612      0.70263      .   S
    Zr183  O612      0.70263      .   S
    Zr190  O613      0.70263      .   S
    Zr182  O613      0.70263      .   S
    Zr189  O614      0.70263      .   S
    Zr181  O614      0.70263      .   S
    Zr188  O615      0.70263      .   S
    Zr180  O615      0.70263      .   S
    Zr90   O616      0.54294      .   S
    Zr222  O616      0.54294      .   S
    Zr88   O617      0.54294      .   S
    Zr220  O617      0.54294      .   S
    Zr89   O618      0.54294      .   S
    Zr221  O618      0.54294      .   S
    Zr91   O619      0.54294      .   S
    Zr223  O619      0.54294      .   S
    Zr307  O620      1.11909      .   S
    Zr23   O620      1.11909      .   S
    Zr307  O621      0.67732      .   S
    Zr187  O621      0.67732      .   S
    Zr306  O622      1.11909      .   S
    Zr22   O622      1.11909      .   S
    Zr306  O623      0.67733      .   S
    Zr186  O623      0.67733      .   S
    Zr305  O624      1.11909      .   S
    Zr21   O624      1.11909      .   S
    Zr305  O625      0.67732      .   S
    Zr185  O625      0.67732      .   S
    Zr304  O626      1.11908      .   S
    Zr20   O626      1.11908      .   S
    Zr304  O627      0.67734      .   S
    Zr184  O627      0.67734      .   S
    Zr221  O628      0.70177      .   S
    Zr217  O628      0.70177      .   S
    Zr221  O629      0.67736      .   S
    Zr329  O629      0.67736      .   S
    Zr222  O630      0.70176      .   S
    Zr218  O630      0.70176      .   S
    Zr222  O631      0.67737      .   S
    Zr330  O631      0.67737      .   S
    Zr223  O632      0.70176      .   S
    Zr219  O632      0.70176      .   S
    Zr223  O633      0.67737      .   S
    Zr331  O633      0.67737      .   S
    Zr220  O634      0.70177      .   S
    Zr216  O634      0.70177      .   S
    Zr220  O635      0.67737      .   S
    Zr328  O635      0.67737      .   S
    Zr180  O636      0.72774      .   S
    Zr216  O636      0.72774      .   S
    Zr180  O637      0.70173      .   S
    Zr184  O637      0.70173      .   S
    Zr183  O638      0.72774      .   S
    Zr219  O638      0.72774      .   S
    Zr183  O639      0.70174      .   S
    Zr187  O639      0.70174      .   S
    Zr182  O640      0.72774      .   S
    Zr218  O640      0.72774      .   S
    Zr182  O641      0.70173      .   S
    Zr186  O641      0.70173      .   S
    Zr181  O642      0.72774      .   S
    Zr217  O642      0.72774      .   S
    Zr181  O643      0.70173      .   S
    Zr185  O643      0.70173      .   S
    Zr20   O644      1.11918  1_455   S
    Zr330  O644      1.11918      .   S
    Zr20   O645      1.12206      .   S
    Zr268  O645      1.12206      .   S
    Zr21   O646      1.11917  1_455   S
    Zr331  O646      1.11917      .   S
    Zr21   O647      1.12206      .   S
    Zr269  O647      1.12206      .   S
    Zr22   O648      1.11915      .   S
    Zr328  O648      1.11915      .   S
    Zr22   O649      1.12207      .   S
    Zr270  O649      1.12207      .   S
    Zr23   O650      1.11916      .   S
    Zr329  O650      1.11916      .   S
    Zr23   O651      1.12206      .   S
    Zr271  O651      1.12206      .   S
    Zr216  O652      0.70265      .   S
    Zr224  O652      0.70265      .   S
    Zr217  O653      0.70265      .   S
    Zr225  O653      0.70265      .   S
    Zr218  O654      0.70265      .   S
    Zr226  O654      0.70265      .   S
    Zr219  O655      0.70265      .   S
    Zr227  O655      0.70265      .   S
    Zr184  O656      0.54288      .   S
    Zr64   O656      0.54288      .   S
    Zr185  O657      0.54288      .   S
    Zr65   O657      0.54288      .   S
    Zr186  O658      0.54202      .   S
    Zr66   O658      0.54202      .   S
    Zr187  O659      0.54202      .   S
    Zr67   O659      0.54202      .   S
    Zr330  O660      0.68666      .   S
    Zr334  O660      0.68666      .   S
    Zr329  O661      0.68667      .   S
    Zr333  O661      0.68667      .   S
    Zr328  O662      0.68667      .   S
    Zr332  O662      0.68667      .   S
    Zr331  O663      0.68666      .   S
    Zr335  O663      0.68666      .   S
    Zr28   O664      0.54371      .   S
    Zr128  O664      0.54371      .   S
    Zr31   O665      0.54370      .   S
    Zr131  O665      0.54370      .   S
    Zr29   O666      0.54317      .   S
    Zr129  O666      0.54317      .   S
    Zr30   O667      0.54272      .   S
    Zr130  O667      0.54272      .   S
    Zr227  O668      0.67561      .   S
    Zr335  O668      0.67561      .   S
    Zr227  O669      0.54307      .   S
    Zr95   O669      0.54307      .   S
    Zr226  O670      0.67561      .   S
    Zr334  O670      0.67561      .   S
    Zr226  O671      0.54307      .   S
    Zr94   O671      0.54307      .   S
    Zr225  O672      0.67560      .   S
    Zr333  O672      0.67560      .   S
    Zr225  O673      0.54308      .   S
    Zr93   O673      0.54308      .   S
    Zr224  O674      0.67560      .   S
    Zr332  O674      0.67560      .   S
    Zr224  O675      0.54307      .   S
    Zr92   O675      0.54307      .   S
    Zr332  O676      1.12229      .   S
    Zr0    O676      1.12229      .   S
    Zr333  O677      1.12229      .   S
    Zr1    O677      1.12229      .   S
    Zr334  O678      1.12229      .   S
    Zr2    O678      1.12229      .   S
    Zr335  O679      1.12230      .   S
    Zr3    O679      1.12230      .   S
    Zr270  O680      0.67558      .   S
    Zr130  O680      0.67558      .   S
    Zr270  O681      0.68673      .   S
    Zr266  O681      0.68673      .   S
    Zr271  O682      0.67562      .   S
    Zr131  O682      0.67562      .   S
    Zr271  O683      0.68673      .   S
    Zr267  O683      0.68673      .   S
    Zr268  O684      0.67562      .   S
    Zr128  O684      0.67562      .   S
    Zr268  O685      0.68673      .   S
    Zr264  O685      0.68673      .   S
    Zr269  O686      0.67563      .   S
    Zr129  O686      0.67563      .   S
    Zr269  O687      0.68673      .   S
    Zr265  O687      0.68673      .   S
    Zr130  O688      0.70315      .   S
    Zr122  O688      0.70315      .   S
    Zr128  O689      0.70262      .   S
    Zr120  O689      0.70262      .   S
    Zr129  O690      0.70262      .   S
    Zr121  O690      0.70262      .   S
    Zr131  O691      0.70262      .   S
    Zr123  O691      0.70262      .   S
    Zr105  O692      0.54290      .   S
    Zr245  O692      0.54290      .   S
    Zr107  O693      0.54290      .   S
    Zr247  O693      0.54290      .   S
    Zr106  O694      0.54290      .   S
    Zr246  O694      0.54290      .   S
    Zr104  O695      0.54290      .   S
    Zr244  O695      0.54290      .   S
    Zr264  O696      1.11931      .   S
    Zr2    O696      1.11931  1_655   S
    Zr264  O697      0.67674      .   S
    Zr124  O697      0.67674      .   S
    Zr265  O698      1.11931      .   S
    Zr3    O698      1.11931  1_655   S
    Zr265  O699      0.67731      .   S
    Zr125  O699      0.67731      .   S
    Zr266  O700      1.11929      .   S
    Zr0    O700      1.11929      .   S
    Zr266  O701      0.67731      .   S
    Zr126  O701      0.67731      .   S
    Zr267  O702      1.11929      .   S
    Zr1    O702      1.11929      .   S
    Zr267  O703      0.67673      .   S
    Zr127  O703      0.67673      .   S
    Zr245  O704      0.70175      .   S
    Zr241  O704      0.70175      .   S
    Zr245  O705      0.67734      .   S
    Zr345  O705      0.67734      .   S
    Zr247  O706      0.70175      .   S
    Zr243  O706      0.70175      .   S
    Zr247  O707      0.67734      .   S
    Zr347  O707      0.67734      .   S
    Zr246  O708      0.70176      .   S
    Zr242  O708      0.70176      .   S
    Zr246  O709      0.67734      .   S
    Zr346  O709      0.67734      .   S
    Zr244  O710      0.70174      .   S
    Zr240  O710      0.70174      .   S
    Zr244  O711      0.67735      .   S
    Zr344  O711      0.67735      .   S
    Zr122  O712      0.72773      .   S
    Zr242  O712      0.72773      .   S
    Zr122  O713      0.70172      .   S
    Zr126  O713      0.70172      .   S
    Zr123  O714      0.72773      .   S
    Zr243  O714      0.72773      .   S
    Zr123  O715      0.70130      .   S
    Zr127  O715      0.70130      .   S
    Zr121  O716      0.72773      .   S
    Zr241  O716      0.72773      .   S
    Zr121  O717      0.70172      .   S
    Zr125  O717      0.70172      .   S
    Zr120  O718      0.72774      .   S
    Zr240  O718      0.72774      .   S
    Zr120  O719      0.70130      .   S
    Zr124  O719      0.70130      .   S
    Zr3    O720      1.11933      .   S
    Zr346  O720      1.11933      .   S
    Zr3    O721      1.12223      .   S
    Zr303  O721      1.12223      .   S
    Zr2    O722      1.11949  1_545   S
    Zr347  O722      1.11949      .   S
    Zr2    O723      1.12223      .   S
    Zr302  O723      1.12223      .   S
    Zr1    O724      1.11932      .   S
    Zr344  O724      1.11932      .   S
    Zr1    O725      1.12223      .   S
    Zr301  O725      1.12223      .   S
    Zr0    O726      1.11949  1_545   S
    Zr345  O726      1.11949      .   S
    Zr0    O727      1.12223      .   S
    Zr300  O727      1.12223      .   S
    Zr243  O728      0.70262      .   S
    Zr251  O728      0.70262      .   S
    Zr242  O729      0.70261      .   S
    Zr250  O729      0.70261      .   S
    Zr241  O730      0.70262      .   S
    Zr249  O730      0.70262      .   S
    Zr240  O731      0.70262      .   S
    Zr248  O731      0.70262      .   S
    Zr124  O732      0.54381      .   S
    Zr24   O732      0.54381      .   S
    Zr127  O733      0.54381      .   S
    Zr27   O733      0.54381      .   S
    Zr125  O734      0.54295      .   S
    Zr25   O734      0.54295      .   S
    Zr126  O735      0.54295      .   S
    Zr26   O735      0.54295      .   S
    Zr345  O736      0.68672      .   S
    Zr349  O736      0.68672      .   S
    Zr346  O737      0.68671      .   S
    Zr350  O737      0.68671      .   S
    Zr347  O738      0.68672      .   S
    Zr351  O738      0.68672      .   S
    Zr344  O739      0.68671      .   S
    Zr348  O739      0.68671      .   S
    Zr60   O740      0.54309      .   S
    Zr176  O740      0.54309      .   S
    Zr61   O741      0.54308      .   S
    Zr177  O741      0.54308      .   S
    Zr63   O742      0.54255      .   S
    Zr179  O742      0.54255      .   S
    Zr62   O743      0.54308      .   S
    Zr178  O743      0.54308      .   S
    Zr248  O744      0.67562      .   S
    Zr348  O744      0.67562      .   S
    Zr248  O745      0.54310      .   S
    Zr108  O745      0.54310      .   S
    Zr249  O746      0.67562      .   S
    Zr349  O746      0.67562      .   S
    Zr249  O747      0.54310      .   S
    Zr109  O747      0.54310      .   S
    Zr250  O748      0.67563      .   S
    Zr350  O748      0.67563      .   S
    Zr250  O749      0.54310      .   S
    Zr110  O749      0.54310      .   S
    Zr251  O750      0.67562      .   S
    Zr351  O750      0.67562      .   S
    Zr251  O751      0.54310      .   S
    Zr111  O751      0.54310      .   S
    Zr351  O752      1.12205      .   S
    Zr19   O752      1.12205      .   S
    Zr350  O753      1.12205      .   S
    Zr18   O753      1.12205      .   S
    Zr349  O754      1.12205      .   S
    Zr17   O754      1.12205      .   S
    Zr348  O755      1.12205      .   S
    Zr16   O755      1.12205      .   S
    Zr302  O756      0.67560      .   S
    Zr178  O756      0.67560      .   S
    Zr302  O757      0.68673      .   S
    Zr298  O757      0.68673      .   S
    Zr303  O758      0.67553      .   S
    Zr179  O758      0.67553      .   S
    Zr303  O759      0.68673      .   S
    Zr299  O759      0.68673      .   S
    Zr301  O760      0.67559      .   S
    Zr177  O760      0.67559      .   S
    Zr301  O761      0.68612      .   S
    Zr297  O761      0.68612      .   S
    Zr300  O762      0.67559      .   S
    Zr176  O762      0.67559      .   S
    Zr300  O763      0.68613      .   S
    Zr296  O763      0.68613      .   S
    Zr179  O764      0.70338      .   S
    Zr171  O764      0.70338      .   S
    Zr178  O765      0.70275      .   S
    Zr170  O765      0.70275      .   S
    Zr177  O766      0.70265      .   S
    Zr169  O766      0.70265      .   S
    Zr176  O767      0.70254      .   S
    Zr168  O767      0.70254      .   S
    Zr73   O768      0.54313      .   S
    Zr197  O768      0.54313      .   S
    Zr72   O769      0.54291      .   S
    Zr196  O769      0.54291      .   S
    Zr74   O770      0.54291      .   S
    Zr198  O770      0.54291      .   S
    Zr75   O771      0.54291      .   S
    Zr199  O771      0.54291      .   S
    Zr296  O772      1.11940      .   S
    Zr17   O772      1.11940  1_565   S
    Zr296  O773      0.67490      .   S
    Zr172  O773      0.67490      .   S
    Zr297  O774      1.11921      .   S
    Zr16   O774      1.11921      .   S
    Zr297  O775      0.67769      .   S
    Zr173  O775      0.67769      .   S
    Zr298  O776      1.11925      .   S
    Zr19   O776      1.11925  1_565   S
    Zr298  O777      0.67735      .   S
    Zr174  O777      0.67735      .   S
    Zr299  O778      1.11907      .   S
    Zr18   O778      1.11907      .   S
    Zr299  O779      0.67733      .   S
    Zr175  O779      0.67733      .   S
    Zr197  O780      0.70155      .   S
    Zr193  O780      0.70155      .   S
    Zr197  O781      0.67712      .   S
    Zr313  O781      0.67712      .   S
    Zr199  O782      0.70176      .   S
    Zr195  O782      0.70176      .   S
    Zr199  O783      0.67735      .   S
    Zr315  O783      0.67735      .   S
    Zr198  O784      0.70176      .   S
    Zr194  O784      0.70176      .   S
    Zr198  O785      0.67734      .   S
    Zr314  O785      0.67734      .   S
    Zr196  O786      0.70176      .   S
    Zr192  O786      0.70176      .   S
    Zr196  O787      0.67734      .   S
    Zr312  O787      0.67734      .   S
    Zr168  O788      0.72781      .   S
    Zr192  O788      0.72781      .   S
    Zr168  O789      0.69975      .   S
    Zr172  O789      0.69975      .   S
    Zr169  O790      0.72760      .   S
    Zr193  O790      0.72760      .   S
    Zr169  O791      0.70174      .   S
    Zr173  O791      0.70174      .   S
    Zr170  O792      0.72773      .   S
    Zr194  O792      0.72773      .   S
    Zr170  O793      0.70173      .   S
    Zr174  O793      0.70173      .   S
    Zr171  O794      0.72773      .   S
    Zr195  O794      0.72773      .   S
    Zr171  O795      0.70174      .   S
    Zr175  O795      0.70174      .   S
    Zr19   O796      1.11917      .   S
    Zr315  O796      1.11917      .   S
    Zr16   O797      1.11918      .   S
    Zr312  O797      1.11918      .   S
    Zr17   O798      1.11910      .   S
    Zr313  O798      1.11910      .   S
    Zr18   O799      1.11917      .   S
    Zr314  O799      1.11917      .   S
    Zr193  O800      0.70298      .   S
    Zr201  O800      0.70298      .   S
    Zr192  O801      0.70182      .   S
    Zr200  O801      0.70182      .   S
    Zr194  O802      0.70266      .   S
    Zr202  O802      0.70266      .   S
    Zr195  O803      0.70266      .   S
    Zr203  O803      0.70266      .   S
    Zr172  O804      0.54719      .   S
    Zr56   O804      0.54719      .   S
    Zr173  O805      0.54299      .   S
    Zr57   O805      0.54299      .   S
    Zr175  O806      0.54289      .   S
    Zr59   O806      0.54289      .   S
    Zr174  O807      0.54289      .   S
    Zr58   O807      0.54289      .   S
    Zr313  O808      0.68677      .   S
    Zr317  O808      0.68677      .   S
    Zr315  O809      0.68648      .   S
    Zr319  O809      0.68648      .   S
    Zr312  O810      0.68648      .   S
    Zr316  O810      0.68648      .   S
    Zr314  O811      0.68647      .   S
    Zr318  O811      0.68647      .   S
    Zr200  O812      0.67578      .   S
    Zr316  O812      0.67578      .   S
    Zr201  O813      0.67570      .   S
    Zr317  O813      0.67570      .   S
    Zr202  O814      0.67569      .   S
    Zr318  O814      0.67569      .   S
    Zr203  O815      0.67569      .   S
    Zr319  O815      0.67569      .   S
