# CIF file generated by openbabel 2.4.90, see http://openbabel.sf.net
data_I
_chemical_name_common 'VESTA_phase_1'
_cell_length_a 13.501
_cell_length_b 14.422
_cell_length_c 15.353
_cell_angle_alpha 89.961
_cell_angle_beta 90.056
_cell_angle_gamma 88.507
_space_group_name_H-M_alt 'P 1'
_space_group_name_Hall 'P 1'
loop_
    _symmetry_equiv_pos_as_xyz
    x,y,z
loop_
    _atom_site_label
    _atom_site_type_symbol
    _atom_site_fract_x
    _atom_site_fract_y
    _atom_site_fract_z
    _atom_site_occupancy
    Zn0     Zn   0.45793   0.96036   0.05570   1.000
    Zn1     Zn   0.32142   0.83233   0.16313   1.000
    Zn2     Zn   0.04195   0.03942   0.55561   1.000
    Zn3     Zn   0.17897   0.16457   0.66318   1.000
    Zn4     Zn   0.53715   0.46041   0.44098   1.000
    Zn5     Zn   0.67906   0.32748   0.34018   1.000
    Zn6     Zn   0.96306   0.53957   0.94106   1.000
    Zn7     Zn   0.82097   0.67248   0.84017   1.000
    H8      H    0.53946   0.69602   0.26539   1.000
    H9      H    0.78359   0.51708   0.18656   1.000
    H10     H    0.70797   0.76165   0.03655   1.000
    H11     H    0.96119   0.30389   0.76564   1.000
    H12     H    0.71688   0.48275   0.68636   1.000
    H13     H    0.79211   0.23798   0.53697   1.000
    H14     H    0.45966   0.19810   0.23067   1.000
    H15     H    0.22057   0.02636   0.31282   1.000
    H16     H    0.29502   0.26724   0.46282   1.000
    H17     H    0.04058   0.80079   0.73043   1.000
    H18     H    0.27972   0.97307   0.81170   1.000
    H19     H    0.20558   0.73289   0.96304   1.000
    C20     C    0.61745   0.73816   0.14995   1.000
    C21     C    0.60031   0.67992   0.22105   1.000
    C22     C    0.66052   0.60073   0.23465   1.000
    C23     C    0.73757   0.57925   0.17653   1.000
    C24     C    0.75449   0.63706   0.10506   1.000
    C25     C    0.69492   0.71690   0.09220   1.000
    C26     C    0.55007   0.81984   0.13424   1.000
    C27     C    0.64089   0.53689   0.30870   1.000
    C28     C    0.83278   0.61293   0.04064   1.000
    C29     C    0.88293   0.26157   0.65031   1.000
    C30     C    0.90022   0.31992   0.72128   1.000
    C31     C    0.84000   0.39912   0.73469   1.000
    C32     C    0.76285   0.42054   0.67651   1.000
    C33     C    0.74583   0.36268   0.60515   1.000
    C34     C    0.80533   0.28279   0.59254   1.000
    C35     C    0.95031   0.17990   0.63460   1.000
    C36     C    0.85955   0.46301   0.80869   1.000
    C37     C    0.66745   0.38685   0.54060   1.000
    C38     C    0.38324   0.24201   0.34751   1.000
    C39     C    0.39998   0.18365   0.27586   1.000
    C40     C    0.34078   0.10656   0.26278   1.000
    C41     C    0.26563   0.08700   0.32230   1.000
    C42     C    0.24963   0.14449   0.39472   1.000
    C43     C    0.30768   0.22260   0.40662   1.000
    C44     C    0.44932   0.32158   0.36260   1.000
    C45     C    0.35954   0.04281   0.18785   1.000
    C46     C    0.17422   0.12178   0.46141   1.000
    C47     C    0.11724   0.75746   0.84751   1.000
    C48     C    0.10034   0.81545   0.77555   1.000
    C49     C    0.15950   0.89246   0.76201   1.000
    C50     C    0.23470   0.91245   0.82155   1.000
    C51     C    0.25070   0.85541   0.89437   1.000
    C52     C    0.19280   0.77725   0.90659   1.000
    C53     C    0.05126   0.67788   0.86284   1.000
    C54     C    0.14049   0.95549   0.68656   1.000
    C55     C    0.32612   0.87843   0.96109   1.000
    O56     O    0.56865   0.87179   0.06793   1.000
    O57     O    0.47697   0.83488   0.18504   1.000
    O58     O    0.56264   0.55470   0.35459   1.000
    O59     O    0.70105   0.46926   0.32250   1.000
    O60     O    0.88263   0.53601   0.04880   1.000
    O61     O    0.84962   0.66836   0.97750   1.000
    O62     O    0.93154   0.12812   0.56820   1.000
    O63     O    0.02349   0.16472   0.68545   1.000
    O64     O    0.93774   0.44521   0.85479   1.000
    O65     O    0.79939   0.53065   0.82229   1.000
    O66     O    0.61760   0.46376   0.54883   1.000
    O67     O    0.65060   0.33155   0.47750   1.000
    O68     O    0.42748   0.37676   0.42646   1.000
    O69     O    0.52432   0.33164   0.31369   1.000
    O70     O    0.43672   0.05811   0.14068   1.000
    O71     O    0.30030   0.97740   0.17396   1.000
    O72     O    0.12530   0.04666   0.45179   1.000
    O73     O    0.16040   0.17615   0.52593   1.000
    O74     O    0.07356   0.62243   0.92640   1.000
    O75     O    0.97586   0.66807   0.81423   1.000
    O76     O    0.06214   0.94121   0.64055   1.000
    O77     O    0.20052   0.01988   0.67095   1.000
    O78     O    0.37450   0.95385   0.95161   1.000
    O79     O    0.34066   0.82401   0.02560   1.000
loop_
    _geom_bond_atom_site_label_1
    _geom_bond_atom_site_label_2
    _geom_bond_distance
    _geom_bond_site_symmetry_2
    _ccdc_geom_bond_type
    O79    Zn1       2.13074      .   S
    O79    C55       1.27514  1_554   S
    H10    C25       1.08765      .   S
    C28    O60       1.28850      .   S
    C28    C24       1.48319      .   S
    C28    O61       1.28030  1_554   S
    O60    Zn6       1.98094  1_554   S
    Zn0    O56       1.94963      .   S
    Zn0    O70       1.93741  1_565   S
    Zn0    O78       1.95796  1_554   S
    O56    C26       1.29230      .   S
    C25    C24       1.40104      .   S
    C25    C20       1.39977      .   S
    C24    C23       1.40017      .   S
    C26    C20       1.48881      .   S
    C26    O57       1.27277      .   S
    O70    C45       1.29305      .   S
    C20    C21       1.40006      .   S
    Zn1    O71       2.11090      .   S
    Zn1    O57       2.12774      .   S
    O71    C45       1.27060  1_565   S
    C23    H9        1.08821      .   S
    C23    C22       1.39999      .   S
    C45    C40       1.49090      .   S
    C21    C22       1.39981      .   S
    C21    H8        1.08793      .   S
    H14    C39       1.08791      .   S
    C22    C27       1.49077      .   S
    C40    C39       1.40052      .   S
    C40    C41       1.40018      .   S
    C39    C38       1.40050      .   S
    C27    O59       1.27042      .   S
    C27    O58       1.29083      .   S
    H15    C41       1.08803      .   S
    O69    Zn5       2.12726      .   S
    O69    C44       1.27250      .   S
    C41    C42       1.40097      .   S
    O59    Zn5       2.09140      .   S
    Zn5    O67       2.14396      .   S
    C38    C44       1.48995      .   S
    C38    C43       1.39964      .   S
    O58    Zn4       1.93641      .   S
    C44    O68       1.29260      .   S
    C42    C43       1.40095      .   S
    C42    C46       1.48699      .   S
    C43    H16       1.08796      .   S
    O68    Zn4       1.94680      .   S
    Zn4    O66       1.98072      .   S
    O72    C46       1.29188      .   S
    O72    Zn2       1.95633      .   S
    C46    O73       1.27459      .   S
    O67    C37       1.27917      .   S
    O73    Zn3       2.12775      .   S
    H13    C34       1.08798      .   S
    C37    O66       1.28880      .   S
    C37    C33       1.48378      .   S
    Zn2    O62       1.94866  1_455   S
    Zn2    O76       1.93855  1_545   S
    O62    C35       1.29284      .   S
    C34    C33       1.40095      .   S
    C34    C29       1.39967      .   S
    C33    C32       1.40013      .   S
    C35    C29       1.48939      .   S
    C35    O63       1.27303  1_655   S
    O76    C54       1.29250      .   S
    C29    C30       1.40030      .   S
    Zn3    O77       2.10278      .   S
    Zn3    O63       2.12704      .   S
    O77    C54       1.27120  1_545   S
    C32    H12       1.08816      .   S
    C32    C31       1.39979      .   S
    C54    C49       1.48992      .   S
    C30    C31       1.40009      .   S
    C30    H11       1.08791      .   S
    H17    C48       1.08790      .   S
    C31    C36       1.49097      .   S
    C49    C48       1.40034      .   S
    C49    C50       1.40116      .   S
    C48    C47       1.40017      .   S
    C36    O65       1.27059      .   S
    C36    O64       1.29051      .   S
    H18    C50       1.08824      .   S
    O75    Zn7       2.12847      .   S
    O75    C53       1.27255  1_655   S
    C50    C51       1.40078      .   S
    O65    Zn7       2.09185      .   S
    Zn7    O61       2.14375      .   S
    C47    C53       1.48972      .   S
    C47    C52       1.39950      .   S
    O64    Zn6       1.93625      .   S
    C53    O74       1.29165      .   S
    C51    C52       1.40102      .   S
    C51    C55       1.48743      .   S
    C52    H19       1.08790      .   S
    O74    Zn6       1.94872  1_455   S
    O78    C55       1.29147      .   S
