# CIF file generated by openbabel 2.4.90, see http://openbabel.sf.net
data_I
_chemical_name_common ''
_cell_length_a 14.565
_cell_length_b 15.855
_cell_length_c 18.856
_cell_angle_alpha 90.398
_cell_angle_beta 90.114
_cell_angle_gamma 90.004
_space_group_name_H-M_alt 'P 1'
_space_group_name_Hall 'P 1'
loop_
    _symmetry_equiv_pos_as_xyz
    x,y,z
loop_
    _atom_site_label
    _atom_site_type_symbol
    _atom_site_fract_x
    _atom_site_fract_y
    _atom_site_fract_z
    _atom_site_occupancy
    Zn0     Zn   0.34347   0.36341   0.03424   1.000
    Zn1     Zn   0.46927   0.07102   0.53826   1.000
    Zn2     Zn   0.65612   0.13676   0.53394   1.000
    Zn3     Zn   0.46859   0.56997   0.95675   1.000
    Zn4     Zn   0.65569   0.63422   0.96285   1.000
    Zn5     Zn   0.53076   0.92867   0.45859   1.000
    Zn6     Zn   0.34391   0.86311   0.46301   1.000
    Zn7     Zn   0.96901   0.92649   0.95922   1.000
    Zn8     Zn   0.15606   0.86245   0.96346   1.000
    Zn9     Zn   0.03139   0.56991   0.45696   1.000
    Zn10    Zn   0.84423   0.63420   0.46280   1.000
    Zn11    Zn   0.03086   0.07060   0.03807   1.000
    Zn12    Zn   0.84390   0.13595   0.03381   1.000
    Zn13    Zn   0.97214   0.42986   0.54021   1.000
    Zn14    Zn   0.15663   0.36351   0.53442   1.000
    H15     H    0.34785   0.50827   0.03321   1.000
    H16     H    0.65130   0.99220   0.53382   1.000
    Zn17    Zn   0.52788   0.42992   0.04018   1.000
    H18     H    0.64868   0.49026   0.96356   1.000
    H19     H    0.34861   0.00760   0.46309   1.000
    H20     H    0.15087   0.00632   0.96322   1.000
    H21     H    0.85107   0.49028   0.46356   1.000
    H22     H    0.84942   0.99160   0.03399   1.000
    H23     H    0.15232   0.50837   0.53346   1.000
    C24     C    0.47602   0.29284   0.94045   1.000
    C25     C    0.53727   0.14786   0.66315   1.000
    C26     C    0.18975   0.46621   0.03303   1.000
    C27     C    0.52448   0.20618   0.43867   1.000
    C28     C    0.46159   0.35367   0.16411   1.000
    C29     C    0.80981   0.03352   0.53296   1.000
    C30     C    0.52192   0.70650   0.05612   1.000
    O31     O    0.03099   0.60377   0.35934   1.000
    O32     O    0.88701   0.65939   0.36434   1.000
    O33     O    0.28518   0.88565   0.96899   1.000
    C34     C    0.46262   0.85197   0.33367   1.000
    C35     C    0.80922   0.53238   0.96398   1.000
    C36     C    0.47554   0.79355   0.55832   1.000
    C37     C    0.53715   0.64472   0.83274   1.000
    C38     C    0.19011   0.96616   0.46387   1.000
    C39     C    0.02402   0.79246   0.05861   1.000
    C40     C    0.96260   0.64448   0.33293   1.000
    C41     C    0.30995   0.96436   0.96381   1.000
    C42     C    0.97824   0.70658   0.55610   1.000
    C43     C    0.03671   0.85046   0.83437   1.000
    C44     C    0.69046   0.53270   0.46394   1.000
    C45     C    0.97629   0.20467   0.93825   1.000
    C46     C    0.03865   0.35338   0.66413   1.000
    C47     C    0.69030   0.03300   0.03293   1.000
    C48     C    0.02399   0.29287   0.44043   1.000
    C49     C    0.96301   0.14784   0.16289   1.000
    C50     C    0.31023   0.46673   0.53305   1.000
    O51     O    0.40319   0.48083   0.00855   1.000
    O52     O    0.53984   0.33670   0.96886   1.000
    O53     O    0.39462   0.28466   0.96526   1.000
    O54     O    0.46898   0.10754   0.63581   1.000
    O55     O    0.61298   0.16318   0.63214   1.000
    O56     O    0.21470   0.38750   0.02800   1.000
    O57     O    0.24231   0.52636   0.04957   1.000
    O58     O    0.59581   0.01921   0.50913   1.000
    O59     O    0.46030   0.16270   0.46630   1.000
    O60     O    0.60585   0.21429   0.46388   1.000
    O61     O    0.52870   0.39614   0.13802   1.000
    O62     O    0.38648   0.33705   0.13231   1.000
    O63     O    0.78495   0.11219   0.52797   1.000
    O64     O    0.75728   0.97369   0.54949   1.000
    O65     O    0.59402   0.51842   0.98812   1.000
    O66     O    0.45741   0.66312   0.02803   1.000
    O67     O    0.60319   0.71416   0.03097   1.000
    O68     O    0.53099   0.89226   0.36096   1.000
    O69     O    0.38696   0.83675   0.36478   1.000
    O70     O    0.78463   0.61125   0.96908   1.000
    O71     O    0.75641   0.47246   0.94750   1.000
    O72     O    0.40414   0.98059   0.48772   1.000
    O73     O    0.53971   0.83714   0.53078   1.000
    O74     O    0.39417   0.78556   0.53306   1.000
    O75     O    0.46890   0.60384   0.85894   1.000
    O76     O    0.61281   0.65953   0.86434   1.000
    O77     O    0.21504   0.88752   0.46888   1.000
    O78     O    0.24261   0.00000   0.44743   1.000
    O79     O    0.09563   0.97942   0.98802   1.000
    O80     O    0.95926   0.83534   0.03075   1.000
    O81     O    0.10550   0.78533   0.03380   1.000
    O82     O    0.25723   0.00000   0.94728   1.000
    O83     O    0.90588   0.51838   0.48812   1.000
    O84     O    0.04269   0.66318   0.52813   1.000
    O85     O    0.89694   0.71428   0.53080   1.000
    O86     O    0.96900   0.89205   0.86103   1.000
    O87     O    0.11148   0.83343   0.86633   1.000
    O88     O    0.71526   0.61151   0.46906   1.000
    O89     O    0.74308   0.47272   0.44745   1.000
    O90     O    0.90470   0.01831   0.00910   1.000
    O91     O    0.04111   0.16225   0.96641   1.000
    O92     O    0.89466   0.21167   0.96291   1.000
    O93     O    0.97151   0.39603   0.63806   1.000
    O94     O    0.11370   0.33697   0.63241   1.000
    O95     O    0.71499   0.11171   0.02784   1.000
    O96     O    0.74302   0.97336   0.04963   1.000
    O97     O    0.09683   0.48084   0.50883   1.000
    O98     O    0.96017   0.33668   0.46873   1.000
    O99     O    0.10542   0.28469   0.46544   1.000
    O100    O    0.03119   0.10743   0.13572   1.000
    O101    O    0.88724   0.16321   0.13172   1.000
    O102    O    0.28529   0.38801   0.52805   1.000
    O103    O    0.25773   0.52685   0.54963   1.000
loop_
    _geom_bond_atom_site_label_1
    _geom_bond_atom_site_label_2
    _geom_bond_distance
    _geom_bond_site_symmetry_2
    _ccdc_geom_bond_type
    O51    H15       1.02660      .   S
    O51    Zn3       1.97016  1_554   S
    O90    H22       1.02572  1_545   S
    O90    Zn7       1.96622  1_544   S
    O95    C47       1.30294      .   S
    O95    Zn12      1.91941      .   S
    O56    C26       1.30268      .   S
    O56    Zn0       1.91760      .   S
    O66    C30       1.27644      .   S
    O66    Zn3       1.99688  1_554   S
    O80    C39       1.27708  1_655   S
    O80    Zn7       1.98890  1_554   S
    O67    C30       1.28211      .   S
    O67    Zn4       1.95510  1_554   S
    C47    O96       1.25944  1_545   S
    C26    O57       1.26001      .   S
    O81    C39       1.28122      .   S
    O81    Zn8       1.95521  1_554   S
    Zn12   O101      1.99448      .   S
    Zn12   O92       1.94969  1_554   S
    Zn0    O62       1.99821      .   S
    Zn0    O53       1.94607  1_554   S
    Zn11   O100      1.92779      .   S
    Zn11   O91       1.99691  1_554   S
    Zn11   O79       1.96350  1_544   S
    Zn17   O61       1.92462      .   S
    Zn17   O52       1.99918  1_554   S
    Zn17   O65       1.97059  1_554   S
    O101   C49       1.27365      .   S
    O62    C28       1.27315      .   S
    O100   C49       1.28711  1_455   S
    O61    C28       1.28735      .   S
    C40    O31       1.28818  1_655   S
    C40    O32       1.27259      .   S
    C34    O68       1.28755      .   S
    C34    O69       1.27327      .   S
    O31    Zn9       1.92099      .   S
    O68    Zn5       1.92548      .   S
    O32    Zn10      2.00236      .   S
    O69    Zn6       1.99812      .   S
    C27    O60       1.28218      .   S
    C27    O59       1.27567      .   S
    C48    O99       1.28239      .   S
    C48    O98       1.27601  1_455   S
    O78    C38       0.98583  1_545   S
    O89    C44       1.25912      .   S
    Zn9    O97       1.96852      .   S
    Zn9    O84       1.99659      .   S
    Zn5    O58       1.96055  1_565   S
    Zn5    O73       2.00067      .   S
    Zn10   O88       1.91659      .   S
    Zn10   O85       1.95419      .   S
    Zn6    O77       1.91976      .   S
    Zn6    O74       1.95223      .   S
    H19    O72       1.02691  1_545   S
    H21    O83       1.02268      .   S
    C38    O77       1.30266      .   S
    O60    Zn2       1.95221      .   S
    C44    O88       1.30355      .   S
    O99    Zn14      1.94506      .   S
    O59    Zn1       1.99946      .   S
    O98    Zn13      2.00025      .   S
    O72    Zn1       1.95984  1_565   S
    O83    Zn13      1.97014      .   S
    O97    H23       1.02716      .   S
    O58    H16       1.02697  1_545   S
    O63    C29       1.30281      .   S
    O63    Zn2       1.91981      .   S
    O102   C50       1.30260      .   S
    O102   Zn14      1.91791      .   S
    O84    C42       1.27665  1_455   S
    O73    C36       1.27581      .   S
    O85    C42       1.28189      .   S
    C29    O64       1.25989  1_545   S
    C50    O103      1.26014      .   S
    O74    C36       1.28234      .   S
    Zn2    O55       1.99820      .   S
    Zn14   Zn13      2.88774  1_455   S
    Zn14   O94       1.99935      .   S
    Zn1    O54       1.92456      .   S
    Zn13   O93       1.92506      .   S
    O55    C25       1.27334      .   S
    O94    C46       1.27310      .   S
    O54    C25       1.28726      .   S
    O93    C46       1.28763  1_655   S
    C37    O75       1.28788      .   S
    C37    O76       1.27278      .   S
    C43    O86       1.28747  1_455   S
    C43    O87       1.27348      .   S
    O75    Zn3       1.92449      .   S
    O86    Zn7       1.92667      .   S
    O76    Zn4       2.00180      .   S
    O87    Zn8       1.99278      .   S
    C45    O92       1.28204      .   S
    C45    O91       1.27620  1_655   S
    C24    O53       1.28231      .   S
    C24    O52       1.27568      .   S
    O82    C41       1.00381  1_545   S
    O71    C35       1.25921      .   S
    Zn4    O70       1.91655      .   S
    H20    O79       1.02574  1_545   S
    Zn8    O33       1.91874      .   S
    H18    O65       1.02287      .   S
    C41    O33       1.30340      .   S
    C35    O70       1.30375      .   S
    O51    Zn17      2.07559      .   S
    O51    Zn0       2.11450      .   S
    O58    Zn1       2.09077      .   S
    O58    Zn2       2.10952      .   S
    O65    Zn3       2.08759      .   S
    O65    Zn4       2.10200      .   S
    O72    Zn5       2.09248      .   S
    O72    Zn6       2.10765      .   S
    O79    Zn7       2.09518  1_455   S
    O79    Zn8       2.10201      .   S
    O83    Zn9       2.08931  1_655   S
    O83    Zn10      2.10167      .   S
    O90    Zn11      2.08608  1_655   S
    O90    Zn12      2.11424      .   S
    O97    Zn13      2.07663  1_455   S
    O97    Zn14      2.11260      .   S
