# CIF file generated by openbabel 2.4.90, see http://openbabel.sf.net
data_I
_chemical_name_common ''
_cell_length_a 14.565
_cell_length_b 15.855
_cell_length_c 18.856
_cell_angle_alpha 90.398
_cell_angle_beta 90.114
_cell_angle_gamma 90.004
_space_group_name_H-M_alt 'P 1'
_space_group_name_Hall 'P 1'
loop_
    _symmetry_equiv_pos_as_xyz
    x,y,z
loop_
    _atom_site_label
    _atom_site_type_symbol
    _atom_site_fract_x
    _atom_site_fract_y
    _atom_site_fract_z
    _atom_site_occupancy
    C0      C    0.47602   0.29284   0.94045   1.000
    C1      C    0.53727   0.14786   0.66315   1.000
    C2      C    0.18975   0.46621   0.03303   1.000
    C3      C    0.52448   0.20618   0.43867   1.000
    C4      C    0.46159   0.35367   0.16411   1.000
    C5      C    0.80981   0.03352   0.53296   1.000
    C6      C    0.52192   0.70650   0.05612   1.000
    C7      C    0.46262   0.85197   0.33367   1.000
    C8      C    0.80922   0.53238   0.96398   1.000
    C9      C    0.47554   0.79355   0.55832   1.000
    C10     C    0.53715   0.64472   0.83274   1.000
    C11     C    0.19011   0.96616   0.46387   1.000
    C12     C    0.02402   0.79246   0.05861   1.000
    C13     C    0.96260   0.64448   0.33293   1.000
    C14     C    0.30995   0.96436   0.96381   1.000
    C15     C    0.97824   0.70658   0.55610   1.000
    C16     C    0.03671   0.85046   0.83437   1.000
    C17     C    0.69046   0.53270   0.46394   1.000
    C18     C    0.97629   0.20467   0.93825   1.000
    C19     C    0.03865   0.35338   0.66413   1.000
    C20     C    0.69030   0.03300   0.03293   1.000
    C21     C    0.02399   0.29287   0.44043   1.000
    C22     C    0.96301   0.14784   0.16289   1.000
    C23     C    0.31023   0.46673   0.53305   1.000
