# CIF file generated by openbabel 2.4.90, see http://openbabel.sf.net
data_I
_chemical_name_common ''
_cell_length_a 14.565
_cell_length_b 15.855
_cell_length_c 18.856
_cell_angle_alpha 90.398
_cell_angle_beta 90.114
_cell_angle_gamma 90.004
_space_group_name_H-M_alt 'P 1'
_space_group_name_Hall 'P 1'
loop_
    _symmetry_equiv_pos_as_xyz
    x,y,z
loop_
    _atom_site_label
    _atom_site_type_symbol
    _atom_site_fract_x
    _atom_site_fract_y
    _atom_site_fract_z
    _atom_site_occupancy
    N0      N    0.99993   0.99980   0.49833   1.000
    N1      N    0.48854   0.78593   0.19193   1.000
    N2      N    0.50997   0.71300   0.69264   1.000
    N3      N    0.99951   0.49923   0.00159   1.000
    N4      N    0.51057   0.21367   0.80482   1.000
    N5      N    0.98965   0.71216   0.19280   1.000
    N6      N    0.50016   0.99866   0.00151   1.000
    N7      N    0.50029   0.49974   0.49840   1.000
    N8      N    0.01141   0.78547   0.69220   1.000
    N9      N    0.48957   0.28601   0.30422   1.000
    N10     N    0.98960   0.21374   0.30464   1.000
    N11     N    0.01081   0.28495   0.80397   1.000
    Zr12    Zr   0.00002   0.99790   0.99855   1.000
    O13     O    0.21486   0.99188   0.99271   1.000
    O14     O    0.00102   0.86960   0.07062   1.000
    O15     O    0.01056   0.90398   0.87165   1.000
    O16     O    0.99919   0.12684   0.92632   1.000
    O17     O    0.78531   0.00469   0.00574   1.000
    O18     O    0.98973   0.09337   0.12539   1.000
    Zr19    Zr   0.49998   0.99889   0.49845   1.000
    O20     O    0.49879   0.87058   0.57048   1.000
    O21     O    0.51039   0.09384   0.62545   1.000
    O22     O    0.50107   0.12796   0.42643   1.000
    O23     O    0.48931   0.90490   0.37139   1.000
    O24     O    0.28519   0.99307   0.49189   1.000
    O25     O    0.71474   0.00563   0.50492   1.000
    Zr26    Zr   0.49904   0.49940   0.99841   1.000
    O27     O    0.28451   0.49315   0.00574   1.000
    O28     O    0.48897   0.40549   0.12543   1.000
    O29     O    0.49861   0.37086   0.92695   1.000
    O30     O    0.50970   0.59330   0.87141   1.000
    O31     O    0.71402   0.50549   0.99271   1.000
    O32     O    0.49977   0.62829   0.06981   1.000
    Zr33    Zr   0.00094   0.49947   0.49848   1.000
    O34     O    0.00025   0.62821   0.56992   1.000
    O35     O    0.99012   0.59302   0.37153   1.000
    O36     O    0.21541   0.49345   0.50497   1.000
    O37     O    0.01119   0.40513   0.62538   1.000
    O38     O    0.78584   0.50575   0.49194   1.000
    O39     O    0.00143   0.37093   0.42692   1.000
loop_
    _geom_bond_atom_site_label_1
    _geom_bond_atom_site_label_2
    _geom_bond_distance
    _geom_bond_site_symmetry_2
    _ccdc_geom_bond_type
    Zr12   O13       3.13269      .   S
    N6     O13       4.15973  1_554   S
    Zr12   O14       2.45427  1_556   S
    N5     O14       3.41288  1_655   S
    Zr12   O15       2.81394      .   S
    N8     O15       3.85905      .   S
    Zr12   O16       2.46436  1_465   S
    N11    O16       3.42298  1_455   S
    Zr12   O17       3.13228  1_466   S
    N6     O17       4.15495  1_565   S
    Zr12   O18       2.82590  1_466   S
    N10    O18       3.86993      .   S
    Zr19   O20       2.45403      .   S
    N2     O20       3.41376      .   S
    Zr19   O21       2.82356  1_565   S
    N4     O21       3.86768      .   S
    Zr19   O22       2.46389  1_565   S
    N9     O22       3.42004      .   S
    Zr19   O23       2.81680      .   S
    N1     O23       3.86260      .   S
    Zr19   O24       3.13207      .   S
    N0     O24       4.15809  1_655   S
    Zr19   O25       3.13182  1_565   S
    N0     O25       4.15697  1_565   S
    Zr26   O27       3.12947  1_556   S
    N3     O27       4.15286  1_655   S
    Zr26   O28       2.83289  1_556   S
    N9     O28       3.87845      .   S
    Zr26   O29       2.43539      .   S
    N4     O29       3.38631      .   S
    Zr26   O30       2.83308      .   S
    N2     O30       3.87987      .   S
    Zr26   O31       3.13484      .   S
    N3     O31       4.16229  1_554   S
    Zr26   O32       2.43929  1_556   S
    N1     O32       3.39081      .   S
    Zr33   O34       2.43783      .   S
    N8     O34       3.38796      .   S
    Zr33   O35       2.82895  1_455   S
    N5     O35       3.87473      .   S
    Zr33   O36       3.12734      .   S
    N7     O36       4.15268      .   S
    Zr33   O37       2.83445      .   S
    N11    O37       3.88065      .   S
    Zr33   O38       3.13672  1_455   S
    N7     O38       4.16213      .   S
    Zr33   O39       2.43637      .   S
    N10    O39       3.38754  1_655   S
