# CIF file generated by openbabel 2.4.90, see http://openbabel.sf.net
data_I
_chemical_name_common ''
_cell_length_a 14.565
_cell_length_b 15.855
_cell_length_c 18.856
_cell_angle_alpha 90.398
_cell_angle_beta 90.114
_cell_angle_gamma 90.004
_space_group_name_H-M_alt 'P 1'
_space_group_name_Hall 'P 1'
loop_
    _symmetry_equiv_pos_as_xyz
    x,y,z
loop_
    _atom_site_label
    _atom_site_type_symbol
    _atom_site_fract_x
    _atom_site_fract_y
    _atom_site_fract_z
    _atom_site_occupancy
    N0      N    0.01082   0.28495   0.80397   1.000
    N1      N    0.48957   0.28601   0.30422   1.000
    N2      N    0.50998   0.71300   0.69264   1.000
    N3      N    0.99993   0.99980   0.49833   1.000
    N4      N    0.98965   0.71215   0.19280   1.000
    N5      N    0.48854   0.78593   0.19193   1.000
    N6      N    0.98960   0.21374   0.30464   1.000
    N7      N    0.51057   0.21367   0.80482   1.000
    N8      N    0.99951   0.49923   0.00159   1.000
    N9      N    0.01141   0.78547   0.69220   1.000
    N10     N    0.50029   0.49974   0.49840   1.000
    N11     N    0.50016   0.99866   0.00151   1.000
    Zr12    Zr   0.49998   0.99889   0.49845   1.000
    O13     O    0.48931   0.90490   0.37139   1.000
    O14     O    0.71474   0.00563   0.50492   1.000
    O15     O    0.28519   0.99307   0.49189   1.000
    O16     O    0.50107   0.12796   0.42643   1.000
    O17     O    0.49879   0.87058   0.57048   1.000
    O18     O    0.51039   0.09384   0.62545   1.000
    Zr19    Zr   0.49904   0.49940   0.99841   1.000
    O20     O    0.28451   0.49315   0.00574   1.000
    O21     O    0.71402   0.50549   0.99271   1.000
    O22     O    0.50970   0.59330   0.87141   1.000
    O23     O    0.49861   0.37086   0.92695   1.000
    O24     O    0.48897   0.40549   0.12543   1.000
    O25     O    0.49977   0.62829   0.06981   1.000
    Zr26    Zr   0.00094   0.49947   0.49848   1.000
    O27     O    0.99012   0.59302   0.37153   1.000
    O28     O    0.00025   0.62821   0.56992   1.000
    O29     O    0.00143   0.37093   0.42691   1.000
    O30     O    0.21541   0.49345   0.50497   1.000
    O31     O    0.01119   0.40513   0.62538   1.000
    O32     O    0.78584   0.50575   0.49194   1.000
    Zr33    Zr   0.00002   0.99790   0.99854   1.000
    O34     O    0.21486   0.99187   0.99271   1.000
    O35     O    0.00102   0.86960   0.07062   1.000
    O36     O    0.98973   0.09337   0.12539   1.000
    O37     O    0.78531   0.00469   0.00574   1.000
    O38     O    0.99919   0.12684   0.92631   1.000
    O39     O    0.01056   0.90398   0.87165   1.000
loop_
    _geom_bond_atom_site_label_1
    _geom_bond_atom_site_label_2
    _geom_bond_distance
    _geom_bond_site_symmetry_2
    _ccdc_geom_bond_type
    Zr12   O13       2.81680      .   S
    N5     O13       3.86258      .   S
    Zr12   O14       3.13181  1_565   S
    N3     O14       4.15698  1_565   S
    Zr12   O15       3.13206      .   S
    N3     O15       4.15810  1_655   S
    Zr12   O16       2.46391  1_565   S
    N1     O16       3.42006      .   S
    Zr12   O17       2.45404      .   S
    N2     O17       3.41378      .   S
    Zr12   O18       2.82356  1_565   S
    N7     O18       3.86768      .   S
    Zr19   O20       3.12948  1_556   S
    N8     O20       4.15285  1_655   S
    Zr19   O21       3.13483      .   S
    N8     O21       4.16229  1_554   S
    Zr19   O22       2.83307      .   S
    N2     O22       3.87986      .   S
    Zr19   O23       2.43538      .   S
    N7     O23       3.38631      .   S
    Zr19   O24       2.83287  1_556   S
    N1     O24       3.87844      .   S
    Zr19   O25       2.43931  1_556   S
    N5     O25       3.39082      .   S
    Zr26   O27       2.82893  1_455   S
    N4     O27       3.87473      .   S
    Zr26   O28       2.43783      .   S
    N9     O28       3.38797      .   S
    Zr26   O29       2.43637      .   S
    N6     O29       3.38754  1_655   S
    Zr26   O30       3.12735      .   S
    N10    O30       4.15266      .   S
    Zr26   O31       2.83444      .   S
    N0     O31       3.88068      .   S
    Zr26   O32       3.13672  1_455   S
    N10    O32       4.16215      .   S
    Zr33   O34       3.13270      .   S
    N11    O34       4.15974  1_554   S
    Zr33   O35       2.45429  1_556   S
    N4     O35       3.41288  1_655   S
    Zr33   O36       2.82589  1_466   S
    N6     O36       3.86994      .   S
    Zr33   O37       3.13227  1_466   S
    N11    O37       4.15494  1_565   S
    Zr33   O38       2.46435  1_465   S
    N0     O38       3.42298  1_455   S
    Zr33   O39       2.81393      .   S
    N9     O39       3.85904      .   S
