# CIF file generated by openbabel 2.4.90, see http://openbabel.sf.net
data_I
_chemical_name_common ''
_cell_length_a 14.95
_cell_length_b 14.892
_cell_length_c 13.081
_cell_angle_alpha 90
_cell_angle_beta 90
_cell_angle_gamma 90
_space_group_name_H-M_alt 'P 1'
_space_group_name_Hall 'P 1'
loop_
    _symmetry_equiv_pos_as_xyz
    x,y,z
loop_
    _atom_site_label
    _atom_site_type_symbol
    _atom_site_fract_x
    _atom_site_fract_y
    _atom_site_fract_z
    _atom_site_occupancy
    C0      C    0.83752   0.99875   0.90138   1.000
    C1      C    0.83751   0.50139   0.90130   1.000
    C2      C    0.66271   0.99852   0.90139   1.000
    C3      C    0.66269   0.50141   0.90148   1.000
    C4      C    0.66269   0.99854   0.09866   1.000
    C5      C    0.66276   0.50143   0.09869   1.000
    C6      C    0.83748   0.99876   0.09877   1.000
    C7      C    0.83755   0.50140   0.09875   1.000
    N8      N    0.39417   0.99974   0.83957   1.000
    N9      N    0.39404   0.50042   0.83958   1.000
    N10     N    0.89403   0.99946   0.83958   1.000
    N11     N    0.89395   0.50073   0.83940   1.000
    N12     N    0.10603   0.99942   0.83983   1.000
    N13     N    0.10590   0.50060   0.83986   1.000
    N14     N    0.60612   0.99905   0.83969   1.000
    N15     N    0.60603   0.50081   0.83986   1.000
    N16     N    0.00065   0.39391   0.33879   1.000
    N17     N    0.00076   0.89413   0.33900   1.000
    N18     N    0.50072   0.39391   0.33870   1.000
    N19     N    0.49924   0.89407   0.33910   1.000
    N20     N    0.00081   0.10616   0.33875   1.000
    N21     N    0.00082   0.60603   0.33912   1.000
    N22     N    0.50085   0.10615   0.33880   1.000
    N23     N    0.49929   0.60597   0.33901   1.000
    N24     N    0.10598   0.99942   0.15995   1.000
    N25     N    0.10598   0.50058   0.16013   1.000
    N26     N    0.60606   0.99909   0.16033   1.000
    N27     N    0.60612   0.50083   0.16033   1.000
    N28     N    0.39411   0.99970   0.16035   1.000
    N29     N    0.39412   0.50038   0.16023   1.000
    N30     N    0.89398   0.99946   0.16058   1.000
    N31     N    0.89402   0.50075   0.16060   1.000
    N32     N    0.00059   0.39392   0.66110   1.000
    N33     N    0.00064   0.89414   0.66090   1.000
    N34     N    0.50081   0.39389   0.66126   1.000
    N35     N    0.49928   0.89405   0.66089   1.000
    N36     N    0.00067   0.10617   0.66124   1.000
    N37     N    0.00075   0.60603   0.66087   1.000
    N38     N    0.50096   0.10613   0.66115   1.000
    N39     N    0.49940   0.60595   0.66095   1.000
loop_
    _geom_bond_atom_site_label_1
    _geom_bond_atom_site_label_2
    _geom_bond_distance
    _geom_bond_site_symmetry_2
    _ccdc_geom_bond_type
    C4     N26       1.16936      .   S
    C5     N27       1.16935      .   S
    C7     N31       1.16930      .   S
    C6     N30       1.16928      .   S
    N11    C1        1.16946      .   S
    N10    C0        1.16933      .   S
    N14    C2        1.16929      .   S
    N15    C3        1.16935      .   S
