# CIF file generated by openbabel 2.4.90, see http://openbabel.sf.net
data_I
_chemical_name_common ''
_cell_length_a 14.95
_cell_length_b 14.892
_cell_length_c 13.081
_cell_angle_alpha 90
_cell_angle_beta 90
_cell_angle_gamma 90
_space_group_name_H-M_alt 'P 1'
_space_group_name_Hall 'P 1'
loop_
    _symmetry_equiv_pos_as_xyz
    x,y,z
loop_
    _atom_site_label
    _atom_site_type_symbol
    _atom_site_fract_x
    _atom_site_fract_y
    _atom_site_fract_z
    _atom_site_occupancy
    Zn0     Zn   0.00005   0.50007   0.75071   1.000
    Zn1     Zn   0.50011   0.99998   0.75070   1.000
    Zn2     Zn   0.50007   0.50003   0.75079   1.000
    Zn3     Zn   0.00012   0.00002   0.24919   1.000
    Zn4     Zn   0.00011   0.50007   0.24928   1.000
    Zn5     Zn   0.50006   0.99998   0.24927   1.000
    Zn6     Zn   0.50005   0.50003   0.24900   1.000
    Ni7     Ni   0.25025   0.99824   0.99992   1.000
    Ni8     Ni   0.25010   0.50175   0.99995   1.000
    Ni9     Ni   0.00178   0.25003   0.49999   1.000
    Ni10    Ni   0.00182   0.75015   0.49999   1.000
    Ni11    Ni   0.50179   0.25006   0.49999   1.000
    Ni12    Ni   0.49822   0.74997   0.49999   1.000
    C13     C    0.33761   0.99887   0.90100   1.000
    C14     C    0.33745   0.50125   0.90129   1.000
    C15     C    0.16276   0.99869   0.90135   1.000
    C16     C    0.16260   0.50134   0.90142   1.000
    C17     C    0.00130   0.33759   0.40108   1.000
    C18     C    0.00137   0.83771   0.40117   1.000
    C19     C    0.50132   0.33761   0.40107   1.000
    C20     C    0.49859   0.83758   0.40120   1.000
    C21     C    0.00140   0.16247   0.40106   1.000
    C22     C    0.00142   0.66252   0.40120   1.000
    C23     C    0.50142   0.16249   0.40107   1.000
    C24     C    0.49863   0.66240   0.40116   1.000
    C25     C    0.16272   0.99868   0.09844   1.000
    Zn26    Zn   0.00008   0.00002   0.75078   1.000
    C27     C    0.16266   0.50132   0.09854   1.000
    C28     C    0.33758   0.99885   0.09859   1.000
    C29     C    0.33751   0.50122   0.09855   1.000
    C30     C    0.00127   0.33759   0.59890   1.000
    C31     C    0.00130   0.83771   0.59880   1.000
    C32     C    0.50138   0.33760   0.59893   1.000
    C33     C    0.49862   0.83757   0.59879   1.000
    C34     C    0.00132   0.16247   0.59892   1.000
    C35     C    0.00137   0.66253   0.59878   1.000
    C36     C    0.50148   0.16248   0.59889   1.000
    C37     C    0.49870   0.66239   0.59880   1.000
    Ts38    Ts   0.96468   0.50029   0.78027   1.000
    Ts39    Ts   0.03533   0.50025   0.78043   1.000
    Ts40    Ts   0.00023   0.46469   0.72084   1.000
    Ts41    Ts   0.00028   0.53539   0.72076   1.000
    Ts42    Ts   0.46480   0.99990   0.78032   1.000
    Ts43    Ts   0.53545   0.99967   0.78036   1.000
    Ts44    Ts   0.49984   0.96467   0.72076   1.000
    Ts45    Ts   0.50040   0.03537   0.72085   1.000
    Ts46    Ts   0.46473   0.50016   0.78039   1.000
    Ts47    Ts   0.53539   0.50029   0.78048   1.000
    Ts48    Ts   0.50032   0.46465   0.72095   1.000
    Ts49    Ts   0.49985   0.53534   0.72084   1.000
    Ts50    Ts   0.00034   0.96472   0.27913   1.000
    Ts51    Ts   0.00035   0.03540   0.27904   1.000
    Ts52    Ts   0.03541   0.99982   0.21944   1.000
    Ts53    Ts   0.96474   0.99983   0.21965   1.000
    Ts54    Ts   0.00029   0.46468   0.27912   1.000
    Ts55    Ts   0.00034   0.53539   0.27923   1.000
    Ts56    Ts   0.03540   0.50024   0.21956   1.000
    Ts57    Ts   0.96474   0.50029   0.21972   1.000
    Ts58    Ts   0.49979   0.96468   0.27921   1.000
    Ts59    Ts   0.50032   0.03537   0.27911   1.000
    Ts60    Ts   0.53539   0.99968   0.21962   1.000
    Ts61    Ts   0.46474   0.99989   0.21963   1.000
    Ts62    Ts   0.50027   0.46466   0.27890   1.000
    Ts63    Ts   0.49980   0.53535   0.27900   1.000
    Ts64    Ts   0.53541   0.50030   0.21944   1.000
    Ts65    Ts   0.46474   0.50015   0.21941   1.000
    Ts66    Ts   0.35646   0.99916   0.88052   1.000
    Ts67    Ts   0.35632   0.50097   0.88072   1.000
    Ts68    Ts   0.14385   0.99893   0.88084   1.000
    Ts69    Ts   0.14370   0.50109   0.88090   1.000
    Ts70    Ts   0.00108   0.35636   0.38032   1.000
    Ts71    Ts   0.00117   0.85652   0.38045   1.000
    Ts72    Ts   0.50112   0.35638   0.38028   1.000
    Ts73    Ts   0.49881   0.85641   0.38050   1.000
    Ts74    Ts   0.00121   0.14370   0.38029   1.000
    Ts75    Ts   0.00122   0.64369   0.38051   1.000
    Ts76    Ts   0.50123   0.14371   0.38031   1.000
    Ts77    Ts   0.49885   0.64359   0.38044   1.000
    Ts78    Ts   0.14380   0.99893   0.11894   1.000
    Ts79    Ts   0.96473   0.99983   0.78038   1.000
    Ts80    Ts   0.03539   0.99982   0.78046   1.000
    Ts81    Ts   0.00027   0.96473   0.72082   1.000
    Ts82    Ts   0.00028   0.03540   0.72093   1.000
    Ts83    Ts   0.14376   0.50108   0.11907   1.000
    Ts84    Ts   0.35643   0.99913   0.11918   1.000
    Ts85    Ts   0.35638   0.50094   0.11911   1.000
    Ts86    Ts   0.00104   0.35637   0.61963   1.000
    Ts87    Ts   0.00108   0.85652   0.61950   1.000
    Ts88    Ts   0.50119   0.35636   0.61971   1.000
    Ts89    Ts   0.49884   0.85640   0.61949   1.000
    Ts90    Ts   0.00110   0.14371   0.61969   1.000
    Ts91    Ts   0.00116   0.64370   0.61948   1.000
    Ts92    Ts   0.50131   0.14370   0.61964   1.000
    Ts93    Ts   0.49893   0.64358   0.61952   1.000
loop_
    _geom_bond_atom_site_label_1
    _geom_bond_atom_site_label_2
    _geom_bond_distance
    _geom_bond_site_symmetry_2
    _ccdc_geom_bond_type
    C25    Ni7       1.83670  1_554   S
    C27    Ni8       1.83638  1_554   S
    C29    Ni8       1.83614  1_554   S
    C28    Ni7       1.83589  1_554   S
    C21    Ni9       1.83712      .   S
    C19    Ni11      1.83690      .   S
    C23    Ni11      1.83718      .   S
    C17    Ni9       1.83693      .   S
    C24    Ni12      1.83628      .   S
    C18    Ni10      1.83611      .   S
    C22    Ni10      1.83655      .   S
    C20    Ni12      1.83644      .   S
    Ni9    C30       1.83701      .   S
    Ni9    C34       1.83706      .   S
    Ni12   C33       1.83642      .   S
    Ni12   C37       1.83624      .   S
    Ni11   C36       1.83711      .   S
    Ni11   C32       1.83696      .   S
    Ni10   C35       1.83652      .   S
    Ni10   C31       1.83606      .   S
    C13    Ni7       1.83850      .   S
    C14    Ni8       1.83606      .   S
    C15    Ni7       1.83667      .   S
    C16    Ni8       1.83637      .   S
    Zn0    Ts38      0.65508  1_455   S
    Zn0    Ts39      0.65525      .   S
    Zn0    Ts40      0.65599      .   S
    Zn0    Ts41      0.65586      .   S
    Zn1    Ts42      0.65491      .   S
    Zn1    Ts43      0.65548      .   S
    Zn1    Ts44      0.65566      .   S
    Zn1    Ts45      0.65584  1_565   S
    Zn2    Ts46      0.65507      .   S
    Zn2    Ts47      0.65548      .   S
    Zn2    Ts48      0.65576      .   S
    Zn2    Ts49      0.65569      .   S
    Zn3    Ts50      0.65548  1_545   S
    Zn3    Ts51      0.65585      .   S
    Zn3    Ts52      0.65549  1_545   S
    Zn3    Ts53      0.65505  1_445   S
    Zn4    Ts54      0.65575      .   S
    Zn4    Ts55      0.65584      .   S
    Zn4    Ts56      0.65534      .   S
    Zn4    Ts57      0.65500  1_455   S
    Zn5    Ts58      0.65565      .   S
    Zn5    Ts59      0.65584  1_565   S
    Zn5    Ts60      0.65534      .   S
    Zn5    Ts61      0.65503      .   S
    Zn6    Ts62      0.65613      .   S
    Zn6    Ts63      0.65620      .   S
    Zn6    Ts64      0.65489      .   S
    Zn6    Ts65      0.65460      .   S
    C13    Ts66      0.38884      .   S
    C14    Ts67      0.38977      .   S
    C15    Ts68      0.38976      .   S
    C16    Ts69      0.38977      .   S
    C17    Ts70      0.38982      .   S
    C18    Ts71      0.38978      .   S
    C19    Ts72      0.38996      .   S
    C20    Ts73      0.38979      .   S
    C21    Ts74      0.38980      .   S
    C22    Ts75      0.38979      .   S
    C23    Ts76      0.38981      .   S
    C24    Ts77      0.38975      .   S
    C25    Ts78      0.38975      .   S
    Zn26   Ts79      0.65514  1_445   S
    Zn26   Ts80      0.65539  1_545   S
    Zn26   Ts81      0.65564  1_545   S
    Zn26   Ts82      0.65581      .   S
    C27    Ts83      0.38976      .   S
    C28    Ts84      0.38975      .   S
    C29    Ts85      0.38976      .   S
    C30    Ts86      0.38955      .   S
    C31    Ts87      0.38958      .   S
    C32    Ts88      0.38980      .   S
    C33    Ts89      0.38978      .   S
    C34    Ts90      0.38983      .   S
    C35    Ts91      0.38980      .   S
    C36    Ts92      0.38980      .   S
    C37    Ts93      0.38977      .   S
