# CIF file generated by openbabel 2.4.90, see http://openbabel.sf.net
data_I
_chemical_name_common ''
_cell_length_a 14.95
_cell_length_b 14.892
_cell_length_c 13.081
_cell_angle_alpha 90
_cell_angle_beta 90
_cell_angle_gamma 90
_space_group_name_H-M_alt 'P 1'
_space_group_name_Hall 'P 1'
loop_
    _symmetry_equiv_pos_as_xyz
    x,y,z
loop_
    _atom_site_label
    _atom_site_type_symbol
    _atom_site_fract_x
    _atom_site_fract_y
    _atom_site_fract_z
    _atom_site_occupancy
    Zn0     Zn   0.00005   0.50007   0.75071   1.000
    Zn1     Zn   0.50011   0.99998   0.75070   1.000
    Zn2     Zn   0.50007   0.50003   0.75079   1.000
    Zn3     Zn   0.00012   0.00002   0.24919   1.000
    Zn4     Zn   0.00011   0.50007   0.24928   1.000
    Zn5     Zn   0.50006   0.99998   0.24927   1.000
    Zn6     Zn   0.50005   0.50003   0.24900   1.000
    Ni7     Ni   0.25025   0.99824   0.99992   1.000
    Ni8     Ni   0.25010   0.50175   0.99995   1.000
    Ni9     Ni   0.00178   0.25003   0.49999   1.000
    Ni10    Ni   0.00182   0.75015   0.49999   1.000
    Ni11    Ni   0.50179   0.25006   0.49999   1.000
    Ni12    Ni   0.49822   0.74997   0.49999   1.000
    C13     C    0.33761   0.99887   0.90100   1.000
    C14     C    0.33745   0.50125   0.90129   1.000
    C15     C    0.16276   0.99869   0.90135   1.000
    C16     C    0.16260   0.50134   0.90142   1.000
    C17     C    0.00130   0.33759   0.40108   1.000
    C18     C    0.00137   0.83771   0.40117   1.000
    C19     C    0.50132   0.33761   0.40107   1.000
    C20     C    0.49859   0.83758   0.40120   1.000
    C21     C    0.00140   0.16247   0.40106   1.000
    C22     C    0.00142   0.66252   0.40120   1.000
    C23     C    0.50142   0.16249   0.40107   1.000
    C24     C    0.49863   0.66240   0.40116   1.000
    C25     C    0.16272   0.99868   0.09844   1.000
    Zn26    Zn   0.00008   0.00002   0.75078   1.000
    C27     C    0.16266   0.50132   0.09854   1.000
    C28     C    0.33758   0.99885   0.09859   1.000
    C29     C    0.33751   0.50122   0.09855   1.000
    C30     C    0.00127   0.33759   0.59890   1.000
    C31     C    0.00130   0.83771   0.59880   1.000
    C32     C    0.50138   0.33760   0.59893   1.000
    C33     C    0.49862   0.83757   0.59879   1.000
    C34     C    0.00132   0.16247   0.59892   1.000
    C35     C    0.00137   0.66253   0.59878   1.000
    C36     C    0.50148   0.16248   0.59889   1.000
    C37     C    0.49870   0.66239   0.59880   1.000
loop_
    _geom_bond_atom_site_label_1
    _geom_bond_atom_site_label_2
    _geom_bond_distance
    _geom_bond_site_symmetry_2
    _ccdc_geom_bond_type
    C25    Ni7       1.83670  1_554   S
    C27    Ni8       1.83638  1_554   S
    C29    Ni8       1.83614  1_554   S
    C28    Ni7       1.83589  1_554   S
    C21    Ni9       1.83712      .   S
    C19    Ni11      1.83690      .   S
    C23    Ni11      1.83718      .   S
    C17    Ni9       1.83693      .   S
    C24    Ni12      1.83628      .   S
    C18    Ni10      1.83611      .   S
    C22    Ni10      1.83655      .   S
    C20    Ni12      1.83644      .   S
    Ni9    C30       1.83701      .   S
    Ni9    C34       1.83706      .   S
    Ni12   C33       1.83642      .   S
    Ni12   C37       1.83624      .   S
    Ni11   C36       1.83711      .   S
    Ni11   C32       1.83696      .   S
    Ni10   C35       1.83652      .   S
    Ni10   C31       1.83606      .   S
    C13    Ni7       1.83850      .   S
    C14    Ni8       1.83606      .   S
    C15    Ni7       1.83667      .   S
    C16    Ni8       1.83637      .   S
