# CIF file generated by openbabel 2.4.90, see http://openbabel.sf.net
data_I
_chemical_name_common ''
_cell_length_a 14.95
_cell_length_b 14.892
_cell_length_c 13.081
_cell_angle_alpha 90
_cell_angle_beta 90
_cell_angle_gamma 90
_space_group_name_H-M_alt 'P 1'
_space_group_name_Hall 'P 1'
loop_
    _symmetry_equiv_pos_as_xyz
    x,y,z
loop_
    _atom_site_label
    _atom_site_type_symbol
    _atom_site_fract_x
    _atom_site_fract_y
    _atom_site_fract_z
    _atom_site_occupancy
    C0      C    0.00008   0.00002   0.75078   1.000
    C1      C    0.00005   0.50007   0.75071   1.000
    C2      C    0.50011   0.99998   0.75070   1.000
    C3      C    0.50007   0.50003   0.75079   1.000
    C4      C    0.00012   0.00002   0.24919   1.000
    C5      C    0.00011   0.50007   0.24928   1.000
    C6      C    0.50006   0.99998   0.24927   1.000
    C7      C    0.50005   0.50003   0.24900   1.000
    C8      C    0.25025   0.99824   0.99992   1.000
    C9      C    0.25010   0.50175   0.99995   1.000
    C10     C    0.75015   0.99816   0.70000   1.000
    C11     C    0.75021   0.50179   0.30000   1.000
    C12     C    0.00178   0.25003   0.49999   1.000
    C13     C    0.00182   0.75015   0.49999   1.000
    C14     C    0.50179   0.25006   0.49999   1.000
    C15     C    0.49822   0.74997   0.49999   1.000
    C16     C    0.33761   0.99887   0.90100   1.000
    C17     C    0.33745   0.50125   0.90129   1.000
    C18     C    0.83752   0.99875   0.90138   1.000
    C19     C    0.83751   0.50139   0.90130   1.000
    C20     C    0.16276   0.99869   0.90135   1.000
    C21     C    0.16260   0.50134   0.90142   1.000
    C22     C    0.66271   0.99852   0.90139   1.000
    C23     C    0.66269   0.50141   0.90148   1.000
    C24     C    0.00130   0.33759   0.40108   1.000
    C25     C    0.00137   0.83771   0.40117   1.000
    C26     C    0.50132   0.33761   0.40107   1.000
    C27     C    0.49859   0.83758   0.40120   1.000
    C28     C    0.00140   0.16247   0.40106   1.000
    C29     C    0.00142   0.66252   0.40120   1.000
    C30     C    0.50142   0.16249   0.40107   1.000
    C31     C    0.49863   0.66240   0.40116   1.000
    C32     C    0.16272   0.99868   0.09844   1.000
    C33     C    0.16266   0.50132   0.09854   1.000
    C34     C    0.66269   0.99854   0.09866   1.000
    C35     C    0.66276   0.50143   0.09869   1.000
    C36     C    0.33758   0.99885   0.09859   1.000
    C37     C    0.33751   0.50122   0.09855   1.000
    C38     C    0.83748   0.99876   0.09877   1.000
    C39     C    0.83755   0.50140   0.09875   1.000
    C40     C    0.00127   0.33759   0.59890   1.000
    C41     C    0.00130   0.83771   0.59880   1.000
    C42     C    0.50138   0.33760   0.59893   1.000
    C43     C    0.49862   0.83757   0.59879   1.000
    C44     C    0.00132   0.16247   0.59892   1.000
    C45     C    0.00137   0.66253   0.59878   1.000
    C46     C    0.50148   0.16248   0.59889   1.000
    C47     C    0.49870   0.66239   0.59880   1.000
    C48     C    0.39417   0.99974   0.83957   1.000
    C49     C    0.39404   0.50042   0.83958   1.000
    C50     C    0.89403   0.99946   0.83958   1.000
    C51     C    0.89395   0.50073   0.83940   1.000
    C52     C    0.10603   0.99942   0.83983   1.000
    C53     C    0.10590   0.50060   0.83986   1.000
    C54     C    0.60612   0.99905   0.83969   1.000
    C55     C    0.60603   0.50081   0.83986   1.000
    C56     C    0.00065   0.39391   0.33879   1.000
    C57     C    0.00076   0.89413   0.33900   1.000
    C58     C    0.50072   0.39391   0.33870   1.000
    C59     C    0.49924   0.89407   0.33910   1.000
    C60     C    0.00081   0.10616   0.33875   1.000
    C61     C    0.00082   0.60603   0.33912   1.000
    C62     C    0.50085   0.10615   0.33880   1.000
    C63     C    0.49929   0.60597   0.33901   1.000
    C64     C    0.10598   0.99942   0.15995   1.000
    C65     C    0.10598   0.50058   0.16013   1.000
    C66     C    0.60606   0.99909   0.16033   1.000
    C67     C    0.60612   0.50083   0.16033   1.000
    C68     C    0.39411   0.99970   0.16035   1.000
    C69     C    0.39412   0.50038   0.16023   1.000
    C70     C    0.89398   0.99946   0.16058   1.000
    C71     C    0.89402   0.50075   0.16060   1.000
    C72     C    0.00059   0.39392   0.66110   1.000
    C73     C    0.00064   0.89414   0.66090   1.000
    C74     C    0.50081   0.39389   0.66126   1.000
    C75     C    0.49928   0.89405   0.66089   1.000
    C76     C    0.00067   0.10617   0.66124   1.000
    C77     C    0.00075   0.60603   0.66087   1.000
    C78     C    0.50096   0.10613   0.66115   1.000
    C79     C    0.49940   0.60595   0.66095   1.000
    O80     O    0.13435   0.99905   0.12920   1.000
    O81     O    0.20649   0.99846   0.04918   1.000
    O82     O    0.13432   0.50095   0.12933   1.000
    O83     O    0.20638   0.50154   0.04925   1.000
    O84     O    0.36581   0.50080   0.12939   1.000
    O85     O    0.29381   0.50149   0.04925   1.000
    O86     O    0.36585   0.99927   0.12947   1.000
    O87     O    0.29392   0.99854   0.04926   1.000
    O88     O    0.63437   0.99881   0.12949   1.000
    O89     O    0.63444   0.50113   0.12951   1.000
    O90     O    0.86578   0.50108   0.12967   1.000
    O91     O    0.86573   0.99911   0.12967   1.000
    O92     O    0.05305   0.99972   0.20457   1.000
    O93     O    0.05304   0.50033   0.20470   1.000
    O94     O    0.44708   0.50021   0.20461   1.000
    O95     O    0.55308   0.50043   0.20467   1.000
    O96     O    0.55306   0.99953   0.20480   1.000
    O97     O    0.44709   0.99984   0.20481   1.000
    O98     O    0.94705   0.99974   0.20488   1.000
    O99     O    0.94706   0.50041   0.20494   1.000
    O100    O    0.50038   0.44697   0.29385   1.000
    O101    O    0.49967   0.55300   0.29400   1.000
    O102    O    0.00047   0.05309   0.29397   1.000
    O103    O    0.00044   0.94707   0.29409   1.000
    O104    O    0.50045   0.05306   0.29403   1.000
    O105    O    0.49965   0.94702   0.29418   1.000
    O106    O    0.00038   0.44699   0.29403   1.000
    O107    O    0.00046   0.55305   0.29420   1.000
    O108    O    0.50102   0.36576   0.36988   1.000
    O109    O    0.00111   0.13431   0.36990   1.000
    O110    O    0.00097   0.36575   0.36993   1.000
    O111    O    0.50113   0.13432   0.36993   1.000
    O112    O    0.00106   0.86592   0.37009   1.000
    O113    O    0.49896   0.63419   0.37008   1.000
    O114    O    0.49891   0.86583   0.37015   1.000
    O115    O    0.00112   0.63427   0.37016   1.000
    O116    O    0.00159   0.20625   0.45053   1.000
    O117    O    0.50156   0.29384   0.45053   1.000
    O118    O    0.50160   0.20628   0.45053   1.000
    O119    O    0.00154   0.29381   0.45054   1.000
    O120    O    0.49843   0.70618   0.45058   1.000
    O121    O    0.00160   0.79393   0.45058   1.000
    O122    O    0.00162   0.70634   0.45060   1.000
    O123    O    0.49841   0.79378   0.45060   1.000
    O124    O    0.00152   0.29381   0.54944   1.000
    O125    O    0.00155   0.20625   0.54945   1.000
    O126    O    0.49842   0.79377   0.54939   1.000
    O127    O    0.49846   0.70618   0.54939   1.000
    O128    O    0.50164   0.20627   0.54944   1.000
    O129    O    0.50159   0.29383   0.54946   1.000
    O130    O    0.00160   0.70634   0.54939   1.000
    O131    O    0.00156   0.79393   0.54939   1.000
    O132    O    0.00106   0.63428   0.62982   1.000
    O133    O    0.49895   0.86581   0.62984   1.000
    O134    O    0.00097   0.86593   0.62985   1.000
    O135    O    0.49905   0.63417   0.62987   1.000
    O136    O    0.50122   0.13430   0.63002   1.000
    O137    O    0.00093   0.36576   0.63000   1.000
    O138    O    0.00100   0.13432   0.63008   1.000
    O139    O    0.50110   0.36574   0.63009   1.000
    O140    O    0.00040   0.55305   0.70579   1.000
    O141    O    0.49970   0.94702   0.70579   1.000
    O142    O    0.00036   0.94708   0.70584   1.000
    O143    O    0.49974   0.55299   0.70587   1.000
    O144    O    0.00032   0.44700   0.70591   1.000
    O145    O    0.50054   0.05306   0.70593   1.000
    O146    O    0.00037   0.05310   0.70601   1.000
    O147    O    0.50044   0.44696   0.70603   1.000
    O148    O    0.44714   0.99986   0.79514   1.000
    O149    O    0.55312   0.99952   0.79519   1.000
    O150    O    0.94700   0.50040   0.79506   1.000
    O151    O    0.05297   0.50034   0.79529   1.000
    O152    O    0.94705   0.99974   0.79518   1.000
    O153    O    0.05305   0.99972   0.79531   1.000
    O154    O    0.44705   0.50023   0.79518   1.000
    O155    O    0.55305   0.50042   0.79533   1.000
    O156    O    0.86573   0.50106   0.87035   1.000
    O157    O    0.36589   0.99931   0.87028   1.000
    O158    O    0.86578   0.99911   0.87048   1.000
    O159    O    0.36575   0.50083   0.87043   1.000
    O160    O    0.63442   0.99878   0.87054   1.000
    O161    O    0.13440   0.99906   0.87059   1.000
    O162    O    0.13425   0.50097   0.87064   1.000
    O163    O    0.63436   0.50111   0.87067   1.000
    O164    O    0.29393   0.99856   0.95046   1.000
    O165    O    0.29378   0.50150   0.95062   1.000
    O166    O    0.20651   0.99846   0.95064   1.000
    O167    O    0.20635   0.50155   0.95069   1.000
loop_
    _geom_bond_atom_site_label_1
    _geom_bond_atom_site_label_2
    _geom_bond_distance
    _geom_bond_site_symmetry_2
    _ccdc_geom_bond_type
    C32    O80       0.58463      .   S
    C64    O80       0.58463      .   S
    C32    O81       0.91835      .   S
    C8     O81       0.91835  1_556   S
    C33    O82       0.58464      .   S
    C65    O82       0.58464      .   S
    C33    O83       0.91819      .   S
    C9     O83       0.91819  1_556   S
    C37    O84       0.58464      .   S
    C69    O84       0.58464      .   S
    C37    O85       0.91807      .   S
    C9     O85       0.91807  1_556   S
    C36    O86       0.58462      .   S
    C68    O86       0.58462      .   S
    C36    O87       0.91795      .   S
    C8     O87       0.91795  1_556   S
    C34    O88       0.58468      .   S
    C66    O88       0.58468      .   S
    C35    O89       0.58468      .   S
    C67    O89       0.58468      .   S
    C39    O90       0.58465      .   S
    C71    O90       0.58465      .   S
    C38    O91       0.58464      .   S
    C70    O91       0.58464      .   S
    C64    O92       0.98323      .   S
    C4     O92       0.98323  1_545   S
    C65    O93       0.98301      .   S
    C5     O93       0.98301      .   S
    C69    O94       0.98191      .   S
    C7     O94       0.98191      .   S
    C67    O95       0.98233      .   S
    C7     O95       0.98233      .   S
    C66    O96       0.98301      .   S
    C6     O96       0.98301      .   S
    C68    O97       0.98255      .   S
    C6     O97       0.98255      .   S
    C70    O98       0.98257      .   S
    C4     O98       0.98257  1_445   S
    C71    O99       0.98250      .   S
    C5     O99       0.98250  1_455   S
    C7     O100      0.98419      .   S
    C58    O100      0.98419      .   S
    C7     O101      0.98430      .   S
    C63    O101      0.98430      .   S
    C4     O102      0.98377      .   S
    C60    O102      0.98377      .   S
    C4     O103      0.98322  1_545   S
    C57    O103      0.98322      .   S
    C6     O104      0.98376  1_565   S
    C62    O104      0.98376      .   S
    C6     O105      0.98348      .   S
    C59    O105      0.98348      .   S
    C5     O106      0.98363      .   S
    C56    O106      0.98363      .   S
    C5     O107      0.98376      .   S
    C61    O107      0.98376      .   S
    C58    O108      0.58494      .   S
    C26    O108      0.58494      .   S
    C60    O109      0.58471      .   S
    C28    O109      0.58471      .   S
    C56    O110      0.58473      .   S
    C24    O110      0.58473      .   S
    C62    O111      0.58472      .   S
    C30    O111      0.58472      .   S
    C57    O112      0.58467      .   S
    C25    O112      0.58467      .   S
    C63    O113      0.58463      .   S
    C31    O113      0.58463      .   S
    C59    O114      0.58469      .   S
    C27    O114      0.58469      .   S
    C61    O115      0.58468      .   S
    C29    O115      0.58468      .   S
    C28    O116      0.91856      .   S
    C12    O116      0.91856      .   S
    C26    O117      0.91845      .   S
    C14    O117      0.91845      .   S
    C30    O118      0.91859      .   S
    C14    O118      0.91859      .   S
    C24    O119      0.91846      .   S
    C12    O119      0.91846      .   S
    C31    O120      0.91814      .   S
    C15    O120      0.91814      .   S
    C25    O121      0.91805      .   S
    C13    O121      0.91805      .   S
    C29    O122      0.91827      .   S
    C13    O122      0.91827      .   S
    C27    O123      0.91822      .   S
    C15    O123      0.91822      .   S
    C12    O124      0.91850      .   S
    C40    O124      0.91850      .   S
    C12    O125      0.91853      .   S
    C44    O125      0.91853      .   S
    C15    O126      0.91821      .   S
    C43    O126      0.91821      .   S
    C15    O127      0.91812      .   S
    C47    O127      0.91812      .   S
    C14    O128      0.91856      .   S
    C46    O128      0.91856      .   S
    C14    O129      0.91848      .   S
    C42    O129      0.91848      .   S
    C13    O130      0.91826      .   S
    C45    O130      0.91826      .   S
    C13    O131      0.91803      .   S
    C41    O131      0.91803      .   S
    C45    O132      0.58470      .   S
    C77    O132      0.58470      .   S
    C43    O133      0.58467      .   S
    C75    O133      0.58467      .   S
    C41    O134      0.58437      .   S
    C73    O134      0.58437      .   S
    C47    O135      0.58466      .   S
    C79    O135      0.58466      .   S
    C46    O136      0.58470      .   S
    C78    O136      0.58470      .   S
    C40    O137      0.58432      .   S
    C72    O137      0.58432      .   S
    C44    O138      0.58474      .   S
    C76    O138      0.58474      .   S
    C42    O139      0.58471      .   S
    C74    O139      0.58471      .   S
    C77    O140      0.98379      .   S
    C1     O140      0.98379      .   S
    C75    O141      0.98348      .   S
    C2     O141      0.98348      .   S
    C73    O142      0.98346      .   S
    C0     O142      0.98346  1_545   S
    C79    O143      0.98353      .   S
    C3     O143      0.98353      .   S
    C72    O144      0.98399      .   S
    C1     O144      0.98399      .   S
    C78    O145      0.98375      .   S
    C2     O145      0.98375  1_565   S
    C76    O146      0.98372      .   S
    C0     O146      0.98372      .   S
    C74    O147      0.98365      .   S
    C3     O147      0.98365      .   S
    C2     O148      0.98236      .   S
    C48    O148      0.98236      .   S
    C2     O149      0.98322      .   S
    C54    O149      0.98322      .   S
    C1     O150      0.98263  1_455   S
    C51    O150      0.98263      .   S
    C1     O151      0.98287      .   S
    C53    O151      0.98287      .   S
    C0     O152      0.98271  1_445   S
    C50    O152      0.98271      .   S
    C0     O153      0.98309  1_545   S
    C52    O153      0.98309      .   S
    C3     O154      0.98261      .   S
    C49    O154      0.98261      .   S
    C3     O155      0.98322      .   S
    C55    O155      0.98322      .   S
    C51    O156      0.58473      .   S
    C19    O156      0.58473      .   S
    C48    O157      0.58327      .   S
    C16    O157      0.58327      .   S
    C50    O158      0.58467      .   S
    C18    O158      0.58467      .   S
    C49    O159      0.58466      .   S
    C17    O159      0.58466      .   S
    C54    O160      0.58465      .   S
    C22    O160      0.58465      .   S
    C52    O161      0.58464      .   S
    C20    O161      0.58464      .   S
    C53    O162      0.58466      .   S
    C21    O162      0.58466      .   S
    C55    O163      0.58467      .   S
    C23    O163      0.58467      .   S
    C16    O164      0.91925      .   S
    C8     O164      0.91925      .   S
    C17    O165      0.91803      .   S
    C9     O165      0.91803      .   S
    C20    O166      0.91833      .   S
    C8     O166      0.91833      .   S
    C21    O167      0.91819      .   S
    C9     O167      0.91819      .   S
