# CIF file generated by openbabel 2.4.90, see http://openbabel.sf.net
data_I
_chemical_name_common ''
_cell_length_a 14.95
_cell_length_b 14.892
_cell_length_c 13.081
_cell_angle_alpha 90
_cell_angle_beta 90
_cell_angle_gamma 90
_space_group_name_H-M_alt 'P 1'
_space_group_name_Hall 'P 1'
loop_
    _symmetry_equiv_pos_as_xyz
    x,y,z
loop_
    _atom_site_label
    _atom_site_type_symbol
    _atom_site_fract_x
    _atom_site_fract_y
    _atom_site_fract_z
    _atom_site_occupancy
    N0      N    0.39412   0.50038   0.16023   1.000
    N1      N    0.86573   0.99911   0.12967   1.000
    N2      N    0.86573   0.50106   0.87035   1.000
    N3      N    0.63437   0.99881   0.12949   1.000
    N4      N    0.10598   0.99942   0.15995   1.000
    N5      N    0.00081   0.10616   0.33875   1.000
    N6      N    0.00075   0.60603   0.66087   1.000
    N7      N    0.50096   0.10613   0.66115   1.000
    N8      N    0.50072   0.39391   0.33870   1.000
    N9      N    0.50085   0.10615   0.33880   1.000
    N10     N    0.63436   0.50111   0.87067   1.000
    N11     N    0.49929   0.60597   0.33901   1.000
    N12     N    0.63444   0.50113   0.12951   1.000
    N13     N    0.10603   0.99942   0.83983   1.000
    N14     N    0.39417   0.99974   0.83957   1.000
    N15     N    0.86578   0.50108   0.12967   1.000
    N16     N    0.49928   0.89405   0.66089   1.000
    N17     N    0.00067   0.10617   0.66124   1.000
    N18     N    0.00064   0.89414   0.66090   1.000
    N19     N    0.50081   0.39389   0.66126   1.000
    N20     N    0.63442   0.99878   0.87054   1.000
    N21     N    0.10590   0.50060   0.83986   1.000
    N22     N    0.86578   0.99911   0.87048   1.000
    N23     N    0.39404   0.50042   0.83958   1.000
    N24     N    0.49940   0.60595   0.66095   1.000
    N25     N    0.00082   0.60603   0.33912   1.000
    N26     N    0.10598   0.50058   0.16013   1.000
    N27     N    0.39411   0.99970   0.16035   1.000
    N28     N    0.00076   0.89413   0.33900   1.000
    N29     N    0.00065   0.39391   0.33879   1.000
    N30     N    0.00059   0.39392   0.66110   1.000
    N31     N    0.49924   0.89407   0.33910   1.000
    Zr32    Zr   0.00012   0.00002   0.24919   1.000
    O33     O    0.03982   0.99979   0.21572   1.000
    O34     O    0.00038   0.03982   0.28277   1.000
    O35     O    0.95326   0.99972   0.20823   1.000
    O36     O    0.00036   0.96031   0.28287   1.000
    Zr37    Zr   0.00142   0.25003   0.49999   1.000
    O38     O    0.00119   0.18513   0.42716   1.000
    O39     O    0.00112   0.18514   0.57283   1.000
    O40     O    0.00109   0.31493   0.57277   1.000
    O41     O    0.00111   0.31493   0.42718   1.000
    Zr42    Zr   0.50148   0.25005   0.49999   1.000
    O43     O    0.50123   0.18514   0.42718   1.000
    O44     O    0.50118   0.31494   0.42714   1.000
    O45     O    0.50122   0.31493   0.57283   1.000
    O46     O    0.50129   0.18513   0.57279   1.000
    Zr47    Zr   0.00011   0.50007   0.24928   1.000
    O48     O    0.03981   0.50026   0.21585   1.000
    O49     O    0.95326   0.50040   0.20829   1.000
    O50     O    0.00031   0.46026   0.28285   1.000
    O51     O    0.00037   0.53980   0.28297   1.000
    Zr52    Zr   0.75021   0.50179   0.30000   1.000
    Zr53    Zr   0.25007   0.50138   0.99995   1.000
    O54     O    0.18507   0.50108   0.92760   1.000
    O55     O    0.31502   0.50098   0.07238   1.000
    O56     O    0.18511   0.50107   0.07234   1.000
    O57     O    0.31498   0.50100   0.92748   1.000
    Zr58    Zr   0.50011   0.99998   0.75070   1.000
    O59     O    0.46039   0.99989   0.78403   1.000
    O60     O    0.49980   0.96026   0.71702   1.000
    O61     O    0.54694   0.99957   0.79178   1.000
    O62     O    0.50043   0.03979   0.71712   1.000
    Zr63    Zr   0.25019   0.99867   0.99986   1.000
    O64     O    0.31511   0.99909   0.92739   1.000
    O65     O    0.31508   0.99908   0.07238   1.000
    O66     O    0.18517   0.99895   0.07222   1.000
    O67     O    0.18520   0.99895   0.92753   1.000
    Zr68    Zr   0.00005   0.50007   0.75071   1.000
    O69     O    0.00025   0.46026   0.71711   1.000
    O70     O    0.95321   0.50040   0.79171   1.000
    O71     O    0.03974   0.50027   0.78414   1.000
    O72     O    0.00031   0.53981   0.71702   1.000
    Zr73    Zr   0.49855   0.74998   0.49999   1.000
    O74     O    0.49884   0.68503   0.42727   1.000
    O75     O    0.49881   0.81496   0.42731   1.000
    O76     O    0.49883   0.81496   0.57268   1.000
    O77     O    0.49889   0.68502   0.57270   1.000
    Zr78    Zr   0.50005   0.50003   0.24900   1.000
    O79     O    0.46032   0.50016   0.21571   1.000
    O80     O    0.49976   0.53976   0.28275   1.000
    O81     O    0.50030   0.46024   0.28264   1.000
    O82     O    0.54691   0.50041   0.20804   1.000
    Zr83    Zr   0.00008   0.00002   0.75078   1.000
    O84     O    0.03981   0.99980   0.78417   1.000
    O85     O    0.00029   0.96031   0.71708   1.000
    O86     O    0.00030   0.03983   0.71720   1.000
    O87     O    0.95325   0.99972   0.79180   1.000
    Zr88    Zr   0.00146   0.75013   0.49999   1.000
    O89     O    0.00118   0.68514   0.57267   1.000
    O90     O    0.00122   0.68514   0.42731   1.000
    O91     O    0.00119   0.81507   0.42727   1.000
    O92     O    0.00113   0.81508   0.57268   1.000
    Zr93    Zr   0.50006   0.99998   0.24927   1.000
    O94     O    0.50035   0.03979   0.28284   1.000
    O95     O    0.54689   0.99958   0.20821   1.000
    O96     O    0.49975   0.96026   0.28296   1.000
    O97     O    0.46033   0.99988   0.21593   1.000
    Zr98    Zr   0.50007   0.50003   0.75079   1.000
    O99     O    0.46031   0.50018   0.78409   1.000
    O100    O    0.49982   0.53975   0.71710   1.000
    O101    O    0.50035   0.46023   0.71722   1.000
    O102    O    0.54689   0.50040   0.79189   1.000
    Zr103   Zr   0.75015   0.99816   0.70000   1.000
loop_
    _geom_bond_atom_site_label_1
    _geom_bond_atom_site_label_2
    _geom_bond_distance
    _geom_bond_site_symmetry_2
    _ccdc_geom_bond_type
    Zr32   O33       0.73743  1_545   S
    N4     O33       1.22904      .   S
    Zr32   O34       0.73783      .   S
    N5     O34       1.22971      .   S
    Zr32   O35       0.88201  1_445   S
    N1     O35       1.66385      .   S
    Zr32   O36       0.73741  1_545   S
    N28    O36       1.22902      .   S
    Zr37   O38       1.35707      .   S
    N5     O38       1.64942      .   S
    Zr37   O39       1.35707      .   S
    N17    O39       1.64943      .   S
    Zr37   O40       1.35670      .   S
    N30    O40       1.64885      .   S
    Zr37   O41       1.35697      .   S
    N29    O41       1.64932      .   S
    Zr42   O43       1.35702      .   S
    N9     O43       1.64937      .   S
    Zr42   O44       1.35721      .   S
    N8     O44       1.64967      .   S
    Zr42   O45       1.35706      .   S
    N19    O45       1.64941      .   S
    Zr42   O46       1.35697      .   S
    N7     O46       1.64931      .   S
    Zr47   O48       0.73726      .   S
    N26    O48       1.22876      .   S
    Zr47   O49       0.88196  1_455   S
    N15    O49       1.66377      .   S
    Zr47   O50       0.73772      .   S
    N29    O50       1.22954      .   S
    Zr47   O51       0.73782      .   S
    N25    O51       1.22969      .   S
    Zr53   O54       1.35642      .   S
    N21    O54       1.64873      .   S
    Zr53   O55       1.35667  1_556   S
    N0     O55       1.64896      .   S
    Zr53   O56       1.35642  1_556   S
    N26    O56       1.64871      .   S
    Zr53   O57       1.35664      .   S
    N23    O57       1.64895      .   S
    Zr58   O59       0.73677      .   S
    N14    O59       1.22795      .   S
    Zr58   O60       0.73761      .   S
    N16    O60       1.22935      .   S
    Zr58   O61       0.88257      .   S
    N20    O61       1.66485      .   S
    Zr58   O62       0.73782  1_565   S
    N7     O62       1.22969      .   S
    Zr63   O64       1.35670      .   S
    N14    O64       1.64831      .   S
    Zr63   O65       1.35698  1_556   S
    N27    O65       1.64927      .   S
    Zr63   O66       1.35666  1_556   S
    N4     O66       1.64895      .   S
    Zr63   O67       1.35611      .   S
    N13    O67       1.64840      .   S
    Zr68   O69       0.73799      .   S
    N30    O69       1.22998      .   S
    Zr68   O70       0.88207  1_455   S
    N2     O70       1.66396      .   S
    Zr68   O71       0.73715      .   S
    N21    O71       1.22859      .   S
    Zr68   O72       0.73784      .   S
    N6     O72       1.22974      .   S
    Zr73   O74       1.35665      .   S
    N11    O74       1.64895      .   S
    Zr73   O75       1.35661      .   S
    N31    O75       1.64894      .   S
    Zr73   O76       1.35660      .   S
    N16    O76       1.64892      .   S
    Zr73   O77       1.35667      .   S
    N24    O77       1.64898      .   S
    Zr78   O79       0.73643      .   S
    N0     O79       1.22738      .   S
    Zr78   O80       0.73822      .   S
    N11    O80       1.23037      .   S
    Zr78   O81       0.73815      .   S
    N8     O81       1.23024      .   S
    Zr78   O82       0.88190      .   S
    N12    O82       1.66372      .   S
    Zr83   O84       0.73732  1_545   S
    N13    O84       1.22886      .   S
    Zr83   O85       0.73759  1_545   S
    N18    O85       1.22932      .   S
    Zr83   O86       0.73779      .   S
    N17    O86       1.22965      .   S
    Zr83   O87       0.88215  1_445   S
    N22    O87       1.66411      .   S
    Zr88   O89       1.35662      .   S
    N6     O89       1.64895      .   S
    Zr88   O90       1.35660      .   S
    N25    O90       1.64893      .   S
    Zr88   O91       1.35665      .   S
    N28    O91       1.64897      .   S
    Zr88   O92       1.35642      .   S
    N18    O92       1.64860      .   S
    Zr93   O94       0.73782  1_565   S
    N9     O94       1.22970      .   S
    Zr93   O95       0.88243      .   S
    N3     O95       1.66463      .   S
    Zr93   O96       0.73761      .   S
    N31    O96       1.22935      .   S
    Zr93   O97       0.73691      .   S
    N27    O97       1.22818      .   S
    Zr98   O99       0.73696      .   S
    N23    O99       1.22826      .   S
    Zr98   O100      0.73765      .   S
    N24    O100      1.22942      .   S
    Zr98   O101      0.73774      .   S
    N19    O101      1.22956      .   S
    Zr98   O102      0.88261      .   S
    N10    O102      1.66495      .   S
