# CIF file generated by openbabel 2.4.90, see http://openbabel.sf.net
data_I
_chemical_name_common ''
_cell_length_a 14.95
_cell_length_b 14.892
_cell_length_c 13.081
_cell_angle_alpha 90
_cell_angle_beta 90
_cell_angle_gamma 90
_space_group_name_H-M_alt 'P 1'
_space_group_name_Hall 'P 1'
loop_
    _symmetry_equiv_pos_as_xyz
    x,y,z
loop_
    _atom_site_label
    _atom_site_type_symbol
    _atom_site_fract_x
    _atom_site_fract_y
    _atom_site_fract_z
    _atom_site_occupancy
    Zr0     Zr   0.00008   0.00002   0.75078   1.000
    Zr1     Zr   0.00005   0.50007   0.75071   1.000
    Zr2     Zr   0.50011   0.99998   0.75070   1.000
    Zr3     Zr   0.50007   0.50003   0.75079   1.000
    Zr4     Zr   0.00012   0.00002   0.24919   1.000
    Zr5     Zr   0.00011   0.50007   0.24928   1.000
    Zr6     Zr   0.50006   0.99998   0.24927   1.000
    Zr7     Zr   0.50005   0.50003   0.24900   1.000
    Zr8     Zr   0.25025   0.99824   0.99992   1.000
    Zr9     Zr   0.25010   0.50175   0.99995   1.000
    Zr10    Zr   0.75015   0.99816   0.70000   1.000
    Zr11    Zr   0.75021   0.50179   0.30000   1.000
    Zr12    Zr   0.00178   0.25003   0.49999   1.000
    Zr13    Zr   0.00182   0.75015   0.49999   1.000
    Zr14    Zr   0.50179   0.25006   0.49999   1.000
    Zr15    Zr   0.49822   0.74997   0.49999   1.000
    Zr16    Zr   0.33761   0.99887   0.90100   1.000
    Zr17    Zr   0.33745   0.50125   0.90129   1.000
    Zr18    Zr   0.16276   0.99869   0.90135   1.000
    Zr19    Zr   0.16260   0.50134   0.90142   1.000
    Zr20    Zr   0.00130   0.33759   0.40108   1.000
    Zr21    Zr   0.00137   0.83771   0.40117   1.000
    Zr22    Zr   0.50132   0.33761   0.40107   1.000
    Zr23    Zr   0.49859   0.83758   0.40120   1.000
    Zr24    Zr   0.00140   0.16247   0.40106   1.000
    Zr25    Zr   0.00142   0.66252   0.40120   1.000
    Zr26    Zr   0.50142   0.16249   0.40107   1.000
    Zr27    Zr   0.49863   0.66240   0.40116   1.000
    Zr28    Zr   0.16272   0.99868   0.09844   1.000
    Zr29    Zr   0.16266   0.50132   0.09854   1.000
    Zr30    Zr   0.33758   0.99885   0.09859   1.000
    Zr31    Zr   0.33751   0.50122   0.09855   1.000
    Zr32    Zr   0.00127   0.33759   0.59890   1.000
    Zr33    Zr   0.00130   0.83771   0.59880   1.000
    Zr34    Zr   0.50138   0.33760   0.59893   1.000
    Zr35    Zr   0.49862   0.83757   0.59879   1.000
    Zr36    Zr   0.00132   0.16247   0.59892   1.000
    Zr37    Zr   0.00137   0.66253   0.59878   1.000
    Zr38    Zr   0.50148   0.16248   0.59889   1.000
    Zr39    Zr   0.49870   0.66239   0.59880   1.000
    O40     O    0.20649   0.99846   0.04918   1.000
    O41     O    0.20638   0.50154   0.04925   1.000
    O42     O    0.29381   0.50149   0.04925   1.000
    O43     O    0.29392   0.99854   0.04926   1.000
    O44     O    0.00159   0.20625   0.45053   1.000
    O45     O    0.50156   0.29384   0.45053   1.000
    O46     O    0.50160   0.20628   0.45053   1.000
    O47     O    0.00154   0.29381   0.45054   1.000
    O48     O    0.49843   0.70618   0.45058   1.000
    O49     O    0.00160   0.79393   0.45058   1.000
    O50     O    0.00162   0.70634   0.45060   1.000
    O51     O    0.49841   0.79378   0.45060   1.000
    O52     O    0.00152   0.29381   0.54944   1.000
    O53     O    0.00155   0.20625   0.54945   1.000
    O54     O    0.49842   0.79377   0.54939   1.000
    O55     O    0.49846   0.70618   0.54939   1.000
    O56     O    0.50164   0.20627   0.54944   1.000
    O57     O    0.50159   0.29383   0.54946   1.000
    O58     O    0.00160   0.70634   0.54939   1.000
    O59     O    0.00156   0.79393   0.54939   1.000
    O60     O    0.29393   0.99856   0.95046   1.000
    O61     O    0.29378   0.50150   0.95062   1.000
    O62     O    0.20651   0.99846   0.95064   1.000
    O63     O    0.20635   0.50155   0.95069   1.000
    N64     N    0.39412   0.50038   0.16023   1.000
    O65     O    0.37997   0.50059   0.14481   1.000
    O66     O    0.42060   0.50029   0.18242   1.000
    N67     N    0.86573   0.99911   0.12967   1.000
    O68     O    0.90639   0.99943   0.16728   1.000
    N69     N    0.86573   0.50106   0.87035   1.000
    O70     O    0.90636   0.50073   0.83270   1.000
    N71     N    0.63437   0.99881   0.12949   1.000
    O72     O    0.59372   0.99917   0.16715   1.000
    N73     N    0.10598   0.99942   0.15995   1.000
    O74     O    0.07951   0.99957   0.18226   1.000
    O75     O    0.12016   0.99923   0.14457   1.000
    N76     N    0.00081   0.10616   0.33875   1.000
    O77     O    0.00064   0.07963   0.31636   1.000
    O78     O    0.00096   0.12024   0.35433   1.000
    N79     N    0.00075   0.60603   0.66087   1.000
    O80     O    0.00090   0.62016   0.64535   1.000
    O81     O    0.00057   0.57954   0.68333   1.000
    N82     N    0.50096   0.10613   0.66115   1.000
    O83     O    0.50075   0.07959   0.68354   1.000
    O84     O    0.50109   0.12022   0.64559   1.000
    N85     N    0.50072   0.39391   0.33870   1.000
    O86     O    0.50087   0.37984   0.35429   1.000
    O87     O    0.50055   0.42044   0.31627   1.000
    N88     N    0.50085   0.10615   0.33880   1.000
    O89     O    0.50065   0.07961   0.31642   1.000
    O90     O    0.50099   0.12023   0.35437   1.000
    N91     N    0.63436   0.50111   0.87067   1.000
    O92     O    0.59371   0.50076   0.83300   1.000
    N93     N    0.49929   0.60597   0.33901   1.000
    O94     O    0.49948   0.57949   0.31651   1.000
    O95     O    0.49912   0.62008   0.35455   1.000
    N96     N    0.63444   0.50113   0.12951   1.000
    O97     O    0.59376   0.50078   0.16709   1.000
    N98     N    0.10603   0.99942   0.83983   1.000
    O99     O    0.07954   0.99957   0.81757   1.000
    O100    O    0.12021   0.99924   0.85521   1.000
    N101    N    0.39417   0.99974   0.83957   1.000
    O102    O    0.42066   0.99980   0.81735   1.000
    O103    O    0.38003   0.99952   0.85493   1.000
    N104    N    0.86578   0.50108   0.12967   1.000
    O105    O    0.90642   0.50074   0.16731   1.000
    N106    N    0.49928   0.89405   0.66089   1.000
    O107    O    0.49949   0.92053   0.68334   1.000
    O108    O    0.49911   0.87993   0.64536   1.000
    N109    N    0.00067   0.10617   0.66124   1.000
    O110    O    0.00083   0.12025   0.64566   1.000
    O111    O    0.00052   0.07963   0.68363   1.000
    N112    N    0.00064   0.89414   0.66090   1.000
    O113    O    0.00050   0.92061   0.68337   1.000
    O114    O    0.00081   0.88003   0.64538   1.000
    N115    N    0.50081   0.39389   0.66126   1.000
    O116    O    0.50095   0.37982   0.64568   1.000
    O117    O    0.50062   0.42042   0.68364   1.000
    N118    N    0.63442   0.99878   0.87054   1.000
    O119    O    0.59377   0.99915   0.83287   1.000
    N120    N    0.10590   0.50060   0.83986   1.000
    O121    O    0.07944   0.50047   0.81757   1.000
    O122    O    0.12007   0.50079   0.85525   1.000
    N123    N    0.86578   0.99911   0.87048   1.000
    O124    O    0.90642   0.99942   0.83283   1.000
    N125    N    0.39404   0.50042   0.83958   1.000
    O126    O    0.42055   0.50032   0.81738   1.000
    O127    O    0.37989   0.50063   0.85501   1.000
    N128    N    0.49940   0.60595   0.66095   1.000
    O129    O    0.49957   0.57947   0.68341   1.000
    O130    O    0.49922   0.62006   0.64541   1.000
    N131    N    0.00082   0.60603   0.33912   1.000
    O132    O    0.00097   0.62015   0.35464   1.000
    O133    O    0.00064   0.57954   0.31666   1.000
    N134    N    0.10598   0.50058   0.16013   1.000
    O135    O    0.07951   0.50046   0.18242   1.000
    O136    O    0.12015   0.50077   0.14473   1.000
    N137    N    0.39411   0.99970   0.16035   1.000
    O138    O    0.37998   0.99948   0.14491   1.000
    O139    O    0.42060   0.99977   0.18258   1.000
    N140    N    0.00076   0.89413   0.33900   1.000
    O141    O    0.00091   0.88002   0.35454   1.000
    O142    O    0.00060   0.92060   0.31655   1.000
    N143    N    0.00065   0.39391   0.33879   1.000
    O144    O    0.00081   0.37983   0.35436   1.000
    O145    O    0.00051   0.42045   0.31641   1.000
    N146    N    0.00059   0.39392   0.66110   1.000
    O147    O    0.00046   0.42046   0.68350   1.000
    O148    O    0.00076   0.37984   0.64555   1.000
    N149    N    0.49924   0.89407   0.33910   1.000
    O150    O    0.49908   0.87995   0.35462   1.000
    O151    O    0.49944   0.92055   0.31664   1.000
loop_
    _geom_bond_atom_site_label_1
    _geom_bond_atom_site_label_2
    _geom_bond_distance
    _geom_bond_site_symmetry_2
    _ccdc_geom_bond_type
    Zr28   O40       0.91835      .   S
    Zr8    O40       0.91835  1_556   S
    Zr29   O41       0.91819      .   S
    Zr9    O41       0.91819  1_556   S
    Zr31   O42       0.91807      .   S
    Zr9    O42       0.91807  1_556   S
    Zr30   O43       0.91795      .   S
    Zr8    O43       0.91795  1_556   S
    Zr24   O44       0.91856      .   S
    Zr12   O44       0.91856      .   S
    Zr22   O45       0.91845      .   S
    Zr14   O45       0.91845      .   S
    Zr26   O46       0.91859      .   S
    Zr14   O46       0.91859      .   S
    Zr20   O47       0.91846      .   S
    Zr12   O47       0.91846      .   S
    Zr27   O48       0.91814      .   S
    Zr15   O48       0.91814      .   S
    Zr21   O49       0.91805      .   S
    Zr13   O49       0.91805      .   S
    Zr25   O50       0.91827      .   S
    Zr13   O50       0.91827      .   S
    Zr23   O51       0.91822      .   S
    Zr15   O51       0.91822      .   S
    Zr12   O52       0.91850      .   S
    Zr32   O52       0.91850      .   S
    Zr12   O53       0.91853      .   S
    Zr36   O53       0.91853      .   S
    Zr15   O54       0.91821      .   S
    Zr35   O54       0.91821      .   S
    Zr15   O55       0.91812      .   S
    Zr39   O55       0.91812      .   S
    Zr14   O56       0.91856      .   S
    Zr38   O56       0.91856      .   S
    Zr14   O57       0.91848      .   S
    Zr34   O57       0.91848      .   S
    Zr13   O58       0.91826      .   S
    Zr37   O58       0.91826      .   S
    Zr13   O59       0.91803      .   S
    Zr33   O59       0.91803      .   S
    Zr16   O60       0.91925      .   S
    Zr8    O60       0.91925      .   S
    Zr17   O61       0.91803      .   S
    Zr9    O61       0.91803      .   S
    Zr18   O62       0.91833      .   S
    Zr8    O62       0.91833      .   S
    Zr19   O63       0.91819      .   S
    Zr9    O63       0.91819      .   S
    N64    O65       0.29232      .   S
    Zr31   O65       0.87695      .   S
    N64    O66       0.49095      .   S
    Zr7    O66       1.47286      .   S
    N67    O68       0.78199      .   S
    Zr4    O68       1.76403  1_445   S
    N69    O70       0.78205      .   S
    Zr1    O70       1.76414  1_455   S
    N71    O72       0.78234      .   S
    Zr6    O72       1.76486      .   S
    N73    O74       0.49162      .   S
    Zr4    O74       1.47485  1_545   S
    N73    O75       0.29231      .   S
    Zr28   O75       0.87694      .   S
    N76    O77       0.49188      .   S
    Zr4    O77       1.47565      .   S
    N76    O78       0.29235      .   S
    Zr24   O78       0.87706      .   S
    N79    O80       0.29235      .   S
    Zr37   O80       0.87704      .   S
    N79    O81       0.49190      .   S
    Zr1    O81       1.47569      .   S
    N82    O83       0.49188      .   S
    Zr2    O83       1.47563  1_565   S
    N82    O84       0.29235      .   S
    Zr38   O84       0.87705      .   S
    N85    O86       0.29247      .   S
    Zr22   O86       0.87741      .   S
    N85    O87       0.49210      .   S
    Zr7    O87       1.47629      .   S
    N88    O89       0.49188      .   S
    Zr6    O89       1.47565  1_565   S
    N88    O90       0.29236      .   S
    Zr26   O90       0.87708      .   S
    N91    O92       0.78248      .   S
    Zr3    O92       1.76522      .   S
    N93    O94       0.49215      .   S
    Zr7    O94       1.47645      .   S
    N93    O95       0.29231      .   S
    Zr27   O95       0.87694      .   S
    N96    O97       0.78197      .   S
    Zr7    O97       1.76380      .   S
    N98    O99       0.49154      .   S
    Zr0    O99       1.47463  1_545   S
    N98    O100      0.29232      .   S
    Zr18   O100      0.87696      .   S
    N101   O102      0.49118      .   S
    Zr2    O102      1.47355      .   S
    N101   O103      0.29163      .   S
    Zr16   O103      0.87490      .   S
    N104   O105      0.78196      .   S
    Zr5    O105      1.76392  1_455   S
    N106   O107      0.49174      .   S
    Zr2    O107      1.47522      .   S
    N106   O108      0.29233      .   S
    Zr35   O108      0.87700      .   S
    N109   O110      0.29237      .   S
    Zr36   O110      0.87712      .   S
    N109   O111      0.49186      .   S
    Zr0    O111      1.47558      .   S
    N112   O113      0.49173      .   S
    Zr0    O113      1.47519  1_545   S
    N112   O114      0.29219      .   S
    Zr33   O114      0.87656      .   S
    N115   O116      0.29235      .   S
    Zr34   O116      0.87706      .   S
    N115   O117      0.49182      .   S
    Zr3    O117      1.47547      .   S
    N118   O119      0.78242      .   S
    Zr2    O119      1.76514      .   S
    N120   O121      0.49144      .   S
    Zr1    O121      1.47431      .   S
    N120   O122      0.29233      .   S
    Zr19   O122      0.87698      .   S
    N123   O124      0.78211      .   S
    Zr0    O124      1.76430  1_445   S
    N125   O126      0.49131      .   S
    Zr3    O126      1.47392      .   S
    N125   O127      0.29233      .   S
    Zr17   O127      0.87698      .   S
    N128   O129      0.49177      .   S
    Zr3    O129      1.47530      .   S
    N128   O130      0.29233      .   S
    Zr39   O130      0.87699      .   S
    N131   O132      0.29234      .   S
    Zr25   O132      0.87702      .   S
    N131   O133      0.49188      .   S
    Zr5    O133      1.47563      .   S
    N134   O135      0.49150      .   S
    Zr5    O135      1.47451      .   S
    N134   O136      0.29232      .   S
    Zr29   O136      0.87696      .   S
    N137   O138      0.29231      .   S
    Zr30   O138      0.87693      .   S
    N137   O139      0.49127      .   S
    Zr6    O139      1.47382      .   S
    N140   O141      0.29233      .   S
    Zr21   O141      0.87700      .   S
    N140   O142      0.49161      .   S
    Zr4    O142      1.47483  1_545   S
    N143   O144      0.29236      .   S
    Zr20   O144      0.87709      .   S
    N143   O145      0.49181      .   S
    Zr5    O145      1.47544      .   S
    N146   O147      0.49199      .   S
    Zr1    O147      1.47598      .   S
    N146   O148      0.29216      .   S
    Zr32   O148      0.87648      .   S
    N149   O150      0.29234      .   S
    Zr23   O150      0.87703      .   S
    N149   O151      0.49174      .   S
    Zr6    O151      1.47521      .   S
