# CIF file generated by openbabel 2.4.90, see http://openbabel.sf.net
data_I
_chemical_name_common ''
_cell_length_a 22.113
_cell_length_b 22.118
_cell_length_c 14.068
_cell_angle_alpha 88.045
_cell_angle_beta 90.645
_cell_angle_gamma 80.131
_space_group_name_H-M_alt 'P 1'
_space_group_name_Hall 'P 1'
loop_
    _symmetry_equiv_pos_as_xyz
    x,y,z
loop_
    _atom_site_label
    _atom_site_type_symbol
    _atom_site_fract_x
    _atom_site_fract_y
    _atom_site_fract_z
    _atom_site_occupancy
    Zn0     Zn   0.37004   0.66674   0.80750   1.000
    Zn1     Zn   0.86929   0.16689   0.80760   1.000
    Zn2     Zn   0.86999   0.66666   0.80795   1.000
    Zn3     Zn   0.36571   0.17222   0.60440   1.000
    Zn4     Zn   0.36717   0.67189   0.60407   1.000
    Zn5     Zn   0.86669   0.17188   0.60406   1.000
    Zn6     Zn   0.86716   0.67193   0.60439   1.000
    Zn7     Zn   0.13001   0.33333   0.19202   1.000
    Zn8     Zn   0.13069   0.83310   0.19241   1.000
    Zn9     Zn   0.62998   0.33314   0.19241   1.000
    Zn10    Zn   0.63049   0.83316   0.19206   1.000
    Zn11    Zn   0.13284   0.32806   0.39558   1.000
    Zn12    Zn   0.13329   0.82811   0.39593   1.000
    Zn13    Zn   0.63285   0.32804   0.39592   1.000
    Zn14    Zn   0.63421   0.82773   0.39558   1.000
    H15     H    0.36113   0.37056   0.55650   1.000
    H16     H    0.36377   0.86989   0.55618   1.000
    H17     H    0.86427   0.36981   0.55651   1.000
    H18     H    0.86185   0.87018   0.55680   1.000
    H19     H    0.37077   0.48150   0.56035   1.000
    H20     H    0.37218   0.98114   0.56009   1.000
    H21     H    0.87310   0.48096   0.56051   1.000
    H22     H    0.87019   0.98144   0.56064   1.000
    H23     H    0.38026   0.46885   0.86523   1.000
    H24     H    0.37788   0.96939   0.86510   1.000
    H25     H    0.87817   0.46927   0.86550   1.000
    H26     H    0.87963   0.96888   0.86553   1.000
    H27     H    0.37189   0.35698   0.86151   1.000
    H28     H    0.37060   0.85727   0.86136   1.000
    H29     H    0.86994   0.35736   0.86169   1.000
    H30     H    0.87205   0.85680   0.86182   1.000
    H31     H    0.16849   0.19214   0.55311   1.000
    Zn32    Zn   0.36950   0.16679   0.80792   1.000
    H33     H    0.16879   0.69263   0.55284   1.000
    H34     H    0.66786   0.19359   0.55228   1.000
    H35     H    0.66914   0.69240   0.55253   1.000
    H36     H    0.05650   0.18877   0.55256   1.000
    H37     H    0.05672   0.68971   0.55353   1.000
    H38     H    0.55583   0.19082   0.55269   1.000
    H39     H    0.55709   0.68936   0.55259   1.000
    H40     H    0.06581   0.14594   0.85290   1.000
    H41     H    0.06769   0.64434   0.85309   1.000
    H42     H    0.56669   0.14434   0.85191   1.000
    H43     H    0.56737   0.64433   0.85220   1.000
    H44     H    0.17910   0.14801   0.85327   1.000
    H45     H    0.18097   0.64633   0.85231   1.000
    H46     H    0.67993   0.14631   0.85145   1.000
    H47     H    0.68067   0.64633   0.85209   1.000
    H48     H    0.46081   0.15341   0.45696   1.000
    H49     H    0.46236   0.65223   0.45653   1.000
    H50     H    0.96117   0.15260   0.45580   1.000
    H51     H    0.96255   0.65296   0.45699   1.000
    H52     H    0.46735   0.15109   0.27998   1.000
    H53     H    0.46895   0.65012   0.27955   1.000
    H54     H    0.96723   0.15044   0.27870   1.000
    H55     H    0.96910   0.65065   0.28002   1.000
    H56     H    0.26854   0.18397   0.26921   1.000
    H57     H    0.27012   0.68365   0.26859   1.000
    H58     H    0.76842   0.18369   0.26921   1.000
    H59     H    0.77027   0.68311   0.26933   1.000
    H60     H    0.27056   0.18462   0.44625   1.000
    H61     H    0.27213   0.68414   0.44571   1.000
    H62     H    0.77092   0.18434   0.44631   1.000
    H63     H    0.77229   0.68389   0.44631   1.000
    H64     H    0.44406   0.09021   0.14519   1.000
    H65     H    0.44565   0.59001   0.14404   1.000
    H66     H    0.94358   0.08969   0.14438   1.000
    H67     H    0.94625   0.59037   0.14453   1.000
    H68     H    0.44144   0.09340   0.96703   1.000
    H69     H    0.44253   0.59344   0.96585   1.000
    H70     H    0.94088   0.09310   0.96619   1.000
    H71     H    0.94293   0.59367   0.96636   1.000
    H72     H    0.30112   0.24341   0.95551   1.000
    H73     H    0.30227   0.74349   0.95555   1.000
    H74     H    0.80105   0.24354   0.95515   1.000
    H75     H    0.80149   0.74264   0.95620   1.000
    H76     H    0.29515   0.24541   0.13324   1.000
    H77     H    0.29668   0.74517   0.13328   1.000
    H78     H    0.79495   0.24518   0.13294   1.000
    H79     H    0.79606   0.74439   0.13392   1.000
    H80     H    0.13812   0.12982   0.44319   1.000
    H81     H    0.13569   0.63019   0.44346   1.000
    H82     H    0.63626   0.12998   0.44391   1.000
    H83     H    0.63884   0.62938   0.44345   1.000
    H84     H    0.12980   0.01856   0.43936   1.000
    H85     H    0.12688   0.51904   0.43948   1.000
    H86     H    0.62781   0.01873   0.43999   1.000
    H87     H    0.62928   0.51843   0.43960   1.000
    H88     H    0.12037   0.03111   0.13440   1.000
    H89     H    0.12184   0.53070   0.13445   1.000
    H90     H    0.62202   0.03051   0.13497   1.000
    H91     H    0.61990   0.53103   0.13475   1.000
    H92     H    0.12794   0.14318   0.13817   1.000
    H93     H    0.13006   0.64261   0.13828   1.000
    H94     H    0.62929   0.14264   0.13874   1.000
    H95     H    0.62817   0.64293   0.13840   1.000
    H96     H    0.33088   0.30757   0.44740   1.000
    H97     H    0.33211   0.80637   0.44772   1.000
    H98     H    0.83131   0.30715   0.44719   1.000
    H99     H    0.83150   0.80781   0.44689   1.000
    C100    C    0.59039   0.65447   0.78706   1.000
    C101    C    0.15165   0.15720   0.78796   1.000
    C102    C    0.15319   0.65603   0.78739   1.000
    C103    C    0.65220   0.15624   0.78651   1.000
    H104    H    0.44293   0.31062   0.44740   1.000
    H105    H    0.44415   0.80913   0.44731   1.000
    H106    H    0.94331   0.31032   0.44644   1.000
    H107    H    0.94348   0.81123   0.44744   1.000
    H108    H    0.43263   0.35570   0.14774   1.000
    H109    H    0.43328   0.85564   0.14809   1.000
    H110    H    0.93227   0.35531   0.14676   1.000
    H111    H    0.93415   0.85406   0.14710   1.000
    H112    H    0.31934   0.35367   0.14790   1.000
    H113    H    0.32003   0.85369   0.14857   1.000
    H114    H    0.81906   0.35298   0.14756   1.000
    H115    H    0.82087   0.85196   0.14674   1.000
    H116    H    0.03744   0.34703   0.54297   1.000
    H117    H    0.03879   0.84744   0.54421   1.000
    H118    H    0.53764   0.34772   0.54348   1.000
    H119    H    0.53918   0.84655   0.54305   1.000
    H120    H    0.03089   0.34934   0.71995   1.000
    H121    H    0.03274   0.84954   0.72120   1.000
    H122    H    0.53105   0.34986   0.72046   1.000
    H123    H    0.53265   0.84889   0.72003   1.000
    H124    H    0.22972   0.31688   0.73060   1.000
    H125    H    0.23156   0.81595   0.73081   1.000
    H126    H    0.72988   0.31634   0.73142   1.000
    H127    H    0.73146   0.81601   0.73070   1.000
    H128    H    0.22770   0.31610   0.55366   1.000
    H129    H    0.22905   0.81538   0.55370   1.000
    H130    H    0.72787   0.31583   0.55431   1.000
    H131    H    0.72942   0.81533   0.55372   1.000
    C132    C    0.13393   0.10816   0.37576   1.000
    C133    C    0.13233   0.60837   0.37595   1.000
    C134    C    0.63275   0.10819   0.37642   1.000
    C135    C    0.63431   0.60783   0.37603   1.000
    C136    C    0.12920   0.04628   0.37377   1.000
    H137    H    0.05375   0.40962   0.85545   1.000
    H138    H    0.05652   0.91025   0.85557   1.000
    H139    H    0.55433   0.40995   0.85600   1.000
    H140    H    0.55595   0.90978   0.85480   1.000
    H141    H    0.05707   0.40631   0.03361   1.000
    H142    H    0.05923   0.90692   0.03370   1.000
    H143    H    0.55747   0.40649   0.03419   1.000
    H144    H    0.55855   0.90657   0.03296   1.000
    H145    H    0.19852   0.25735   0.04370   1.000
    H146    H    0.19885   0.75630   0.04493   1.000
    H147    H    0.69778   0.25649   0.04444   1.000
    H148    H    0.69887   0.75656   0.04447   1.000
    H149    H    0.20394   0.25559   0.86600   1.000
    H150    H    0.20490   0.75454   0.86715   1.000
    H151    H    0.70334   0.25482   0.86670   1.000
    H152    H    0.70485   0.75458   0.86674   1.000
    C153    C    0.35946   0.29029   0.70668   1.000
    C154    C    0.36086   0.78992   0.70660   1.000
    C155    C    0.86041   0.29003   0.70693   1.000
    C156    C    0.86050   0.78989   0.70696   1.000
    C157    C    0.36556   0.35695   0.70885   1.000
    C158    C    0.36634   0.85673   0.70861   1.000
    C159    C    0.86625   0.35675   0.70894   1.000
    C160    C    0.86607   0.85667   0.70914   1.000
    C161    C    0.36570   0.39210   0.62395   1.000
    C162    C    0.36725   0.89169   0.62367   1.000
    C163    C    0.86765   0.39162   0.62402   1.000
    C164    C    0.86604   0.89183   0.62423   1.000
    C165    C    0.37114   0.45382   0.62590   1.000
    C166    C    0.37200   0.95358   0.62570   1.000
    C167    C    0.87267   0.45344   0.62610   1.000
    C168    C    0.87079   0.95371   0.62622   1.000
    C169    C    0.37624   0.48178   0.71000   1.000
    C170    C    0.37574   0.98187   0.71280   1.000
    C171    C    0.87639   0.48171   0.71324   1.000
    C172    C    0.87556   0.98178   0.71328   1.000
    C173    C    0.37672   0.44656   0.79800   1.000
    C174    C    0.37541   0.94685   0.79785   1.000
    C175    C    0.87568   0.44676   0.79826   1.000
    C176    C    0.87629   0.94653   0.79830   1.000
    C177    C    0.37163   0.38472   0.79597   1.000
    C178    C    0.37095   0.88487   0.79580   1.000
    C179    C    0.87073   0.38489   0.79615   1.000
    C180    C    0.87169   0.88456   0.79627   1.000
    C181    C    0.37751   0.04954   0.71460   1.000
    C182    C    0.37846   0.54935   0.71482   1.000
    C183    C    0.87737   0.04944   0.71496   1.000
    C184    C    0.87845   0.54932   0.71500   1.000
    C185    C    0.24788   0.17348   0.70399   1.000
    C186    C    0.24896   0.67314   0.70273   1.000
    C187    C    0.74812   0.17375   0.70249   1.000
    C188    C    0.74895   0.67303   0.70276   1.000
    C189    C    0.18066   0.17042   0.70348   1.000
    C190    C    0.18177   0.66988   0.70279   1.000
    C191    C    0.68087   0.17042   0.70214   1.000
    C192    C    0.68178   0.66977   0.70256   1.000
    C193    C    0.14612   0.18138   0.61854   1.000
    C194    C    0.14675   0.68150   0.61839   1.000
    C195    C    0.64584   0.18229   0.61775   1.000
    C196    C    0.64696   0.68129   0.61795   1.000
    C197    C    0.08359   0.17958   0.61819   1.000
    C198    C    0.08417   0.67990   0.61873   1.000
    C199    C    0.58322   0.18074   0.61793   1.000
    C200    C    0.58439   0.67964   0.61794   1.000
    C201    C    0.05449   0.16673   0.70275   1.000
    C202    C    0.05549   0.66646   0.70340   1.000
    C203    C    0.55444   0.16705   0.70241   1.000
    C204    C    0.55553   0.66629   0.70248   1.000
    C205    C    0.08903   0.15564   0.78769   1.000
    C206    C    0.09055   0.65455   0.78777   1.000
    C207    C    0.58955   0.15479   0.78672   1.000
    O208    O    0.46302   0.66150   0.78340   1.000
    O209    O    0.96143   0.16387   0.78308   1.000
    O210    O    0.96310   0.66140   0.78466   1.000
    O211    O    0.14056   0.23864   0.21279   1.000
    O212    O    0.14328   0.73775   0.21286   1.000
    O213    O    0.64032   0.23826   0.21303   1.000
    O214    O    0.64018   0.73848   0.21303   1.000
    O215    O    0.14281   0.23317   0.37432   1.000
    C216    C    0.65302   0.65597   0.78703   1.000
    C217    C    0.48669   0.16622   0.70316   1.000
    C218    C    0.48783   0.66542   0.70270   1.000
    C219    C    0.98688   0.16557   0.70249   1.000
    C220    C    0.98779   0.66554   0.70395   1.000
    C221    C    0.41962   0.15930   0.41202   1.000
    C222    C    0.42118   0.65835   0.41155   1.000
    C223    C    0.91987   0.15868   0.41112   1.000
    C224    C    0.92136   0.65884   0.41205   1.000
    C225    C    0.42265   0.15776   0.31361   1.000
    C226    C    0.42424   0.65691   0.31313   1.000
    C227    C    0.92263   0.15718   0.31269   1.000
    C228    C    0.92440   0.65728   0.31360   1.000
    C229    C    0.36806   0.16710   0.25927   1.000
    C230    C    0.36965   0.66654   0.25875   1.000
    C231    C    0.86790   0.16665   0.25869   1.000
    C232    C    0.86979   0.66652   0.25931   1.000
    C233    C    0.31233   0.17681   0.30770   1.000
    C234    C    0.31391   0.67630   0.30713   1.000
    C235    C    0.81231   0.17643   0.30745   1.000
    C236    C    0.81407   0.67609   0.30778   1.000
    C237    C    0.31296   0.17711   0.40640   1.000
    C238    C    0.31452   0.67651   0.40585   1.000
    C239    C    0.81320   0.17672   0.40617   1.000
    C240    C    0.81469   0.67646   0.40646   1.000
    C241    C    0.36915   0.16737   0.15426   1.000
    C242    C    0.37069   0.66707   0.15373   1.000
    C243    C    0.86884   0.16700   0.15367   1.000
    C244    C    0.87071   0.66688   0.15429   1.000
    C245    C    0.41138   0.12495   0.10606   1.000
    C246    C    0.41285   0.62478   0.10519   1.000
    C247    C    0.91097   0.12456   0.10535   1.000
    C248    C    0.91314   0.62487   0.10572   1.000
    C249    C    0.41033   0.12631   0.00000   1.000
    C250    C    0.41155   0.62628   0.00000   1.000
    C251    C    0.90991   0.12606   0.00000   1.000
    C252    C    0.91172   0.62629   0.00000   1.000
    C253    C    0.33087   0.20969   0.00000   1.000
    C254    C    0.33209   0.70967   0.00000   1.000
    C255    C    0.83065   0.20965   0.00000   1.000
    C256    C    0.83162   0.70907   0.00000   1.000
    C257    C    0.32798   0.21052   0.09939   1.000
    C258    C    0.32943   0.71034   0.09919   1.000
    C259    C    0.82773   0.21030   0.09896   1.000
    C260    C    0.82905   0.70978   0.09900   1.000
    C261    C    0.13948   0.21011   0.29303   1.000
    C262    C    0.13958   0.70995   0.29304   1.000
    C263    C    0.63914   0.20995   0.29340   1.000
    C264    C    0.64053   0.70964   0.29329   1.000
    C265    C    0.13391   0.14333   0.29080   1.000
    C266    C    0.13374   0.64323   0.29103   1.000
    C267    C    0.63363   0.14314   0.29147   1.000
    C268    C    0.63446   0.64297   0.29110   1.000
    C269    C    0.12731   0.54655   0.37388   1.000
    C270    C    0.62798   0.04630   0.37439   1.000
    C271    C    0.62892   0.54610   0.37405   1.000
    C272    C    0.12443   0.01821   0.28671   1.000
    C273    C    0.12361   0.51827   0.28675   1.000
    C274    C    0.62422   0.01803   0.28727   1.000
    C275    C    0.62387   0.51812   0.28699   1.000
    C276    C    0.12370   0.05346   0.20169   1.000
    C277    C    0.12432   0.55322   0.20172   1.000
    C278    C    0.62451   0.05305   0.20222   1.000
    C279    C    0.62339   0.55333   0.20198   1.000
    C280    C    0.12830   0.11543   0.20372   1.000
    C281    C    0.12927   0.61509   0.20382   1.000
    C282    C    0.62897   0.11502   0.20420   1.000
    C283    C    0.62843   0.61519   0.20401   1.000
    C284    C    0.12155   0.45067   0.28492   1.000
    C285    C    0.12262   0.95055   0.28504   1.000
    C286    C    0.62171   0.45054   0.28520   1.000
    C287    C    0.62247   0.95038   0.28542   1.000
    C288    C    0.25106   0.32695   0.29722   1.000
    C289    C    0.25185   0.82623   0.29753   1.000
    C290    C    0.75114   0.32620   0.29728   1.000
    C291    C    0.75211   0.82640   0.29600   1.000
    C292    C    0.31823   0.33022   0.29743   1.000
    C293    C    0.31909   0.82956   0.29788   1.000
    C294    C    0.81829   0.32960   0.29715   1.000
    C295    C    0.81931   0.82952   0.29652   1.000
    C296    C    0.35306   0.31869   0.38203   1.000
    C297    C    0.35413   0.81768   0.38220   1.000
    C298    C    0.85331   0.31823   0.38159   1.000
    C299    C    0.85386   0.81858   0.38146   1.000
    C300    C    0.41562   0.32034   0.38204   1.000
    C301    C    0.41675   0.81922   0.38208   1.000
    C302    C    0.91586   0.31998   0.38121   1.000
    C303    C    0.91638   0.82041   0.38181   1.000
    C304    C    0.44449   0.33371   0.29750   1.000
    C305    C    0.44552   0.83291   0.29759   1.000
    C306    C    0.94451   0.33339   0.29649   1.000
    C307    C    0.94548   0.83327   0.29720   1.000
    C308    C    0.40962   0.34554   0.21294   1.000
    C309    C    0.41042   0.84520   0.21329   1.000
    C310    C    0.90945   0.34510   0.21211   1.000
    C311    C    0.91094   0.84435   0.21231   1.000
    C312    C    0.34698   0.34403   0.21290   1.000
    C313    C    0.34777   0.84375   0.21350   1.000
    C314    C    0.84684   0.34343   0.21250   1.000
    C315    C    0.84832   0.84277   0.21204   1.000
    C316    C    0.01220   0.33442   0.29591   1.000
    C317    C    0.01309   0.83443   0.29751   1.000
    C318    C    0.51218   0.33458   0.29720   1.000
    C319    C    0.51327   0.83372   0.29684   1.000
    C320    C    0.07863   0.34114   0.58792   1.000
    C321    C    0.08010   0.84127   0.58880   1.000
    C322    C    0.57882   0.34161   0.58846   1.000
    C323    C    0.58036   0.84067   0.58798   1.000
    C324    C    0.07560   0.34270   0.68634   1.000
    C325    C    0.07734   0.84274   0.68732   1.000
    C326    C    0.57576   0.34306   0.68688   1.000
    C327    C    0.57734   0.84222   0.68639   1.000
    C328    C    0.13020   0.33346   0.74066   1.000
    C329    C    0.13207   0.83316   0.74130   1.000
    C330    C    0.63034   0.33344   0.74126   1.000
    C331    C    0.63194   0.83288   0.74070   1.000
    C332    C    0.18592   0.32389   0.69219   1.000
    C333    C    0.18767   0.82329   0.69257   1.000
    C334    C    0.68609   0.32368   0.69287   1.000
    C335    C    0.68766   0.82317   0.69228   1.000
    C336    C    0.18530   0.32352   0.59350   1.000
    C337    C    0.18677   0.82305   0.59380   1.000
    C338    C    0.68547   0.32346   0.59416   1.000
    C339    C    0.68703   0.82285   0.59357   1.000
    C340    C    0.12928   0.33311   0.84568   1.000
    C341    C    0.13114   0.83283   0.84634   1.000
    C342    C    0.62932   0.33291   0.84628   1.000
    C343    C    0.63086   0.83262   0.84573   1.000
    C344    C    0.08686   0.37511   0.89426   1.000
    C345    C    0.08908   0.87536   0.89463   1.000
    C346    C    0.58714   0.37518   0.89484   1.000
    C347    C    0.58863   0.87503   0.89393   1.000
    C348    C    0.08828   0.37369   0.99311   1.000
    C349    C    0.09014   0.87390   0.99346   1.000
    C350    C    0.58846   0.37367   0.99368   1.000
    C351    C    0.58967   0.87366   0.99270   1.000
    C352    C    0.16839   0.29092   0.99870   1.000
    C353    C    0.16929   0.79020   0.99960   1.000
    C354    C    0.66794   0.29029   0.99933   1.000
    C355    C    0.66912   0.79028   0.99910   1.000
    C356    C    0.17095   0.29020   0.90017   1.000
    C357    C    0.17219   0.78949   0.90100   1.000
    C358    C    0.67058   0.28964   0.90080   1.000
    C359    C    0.67202   0.78946   0.90059   1.000
    N360    N    0.36575   0.16888   0.45800   1.000
    N361    N    0.36729   0.66812   0.45750   1.000
    N362    N    0.86612   0.16839   0.45747   1.000
    N363    N    0.86749   0.66839   0.45805   1.000
    N364    N    0.37078   0.16801   0.95503   1.000
    N365    N    0.37183   0.66803   0.95451   1.000
    N366    N    0.87048   0.16796   0.95450   1.000
    N367    N    0.87166   0.66773   0.95505   1.000
    N368    N    0.13251   0.33159   0.54192   1.000
    N369    N    0.13385   0.83150   0.54250   1.000
    N370    N    0.63271   0.33183   0.54248   1.000
    N371    N    0.63423   0.83107   0.54197   1.000
    N372    N    0.12835   0.33226   0.04492   1.000
    N373    N    0.12953   0.83197   0.04551   1.000
    N374    N    0.62819   0.33192   0.04550   1.000
    N375    N    0.62921   0.83195   0.04495   1.000
    O376    O    0.35984   0.26145   0.78694   1.000
    O377    O    0.35931   0.76159   0.78690   1.000
    O378    O    0.85671   0.26224   0.78712   1.000
    O379    O    0.85944   0.76135   0.78719   1.000
    O380    O    0.35433   0.26763   0.62550   1.000
    O381    O    0.35794   0.76664   0.62538   1.000
    O382    O    0.85951   0.26628   0.62572   1.000
    O383    O    0.85717   0.76682   0.62567   1.000
    O384    O    0.37791   0.07811   0.63472   1.000
    O385    O    0.37738   0.57813   0.63483   1.000
    O386    O    0.87481   0.07833   0.63490   1.000
    O387    O    0.87747   0.57810   0.63512   1.000
    O388    O    0.37748   0.07316   0.79617   1.000
    O389    O    0.38004   0.57278   0.79629   1.000
    O390    O    0.88019   0.07280   0.79627   1.000
    O391    O    0.87993   0.57274   0.79656   1.000
    O392    O    0.27433   0.17463   0.78486   1.000
    O393    O    0.27587   0.67239   0.78366   1.000
    O394    O    0.77507   0.17186   0.78357   1.000
    O395    O    0.77578   0.67238   0.78374   1.000
    O396    O    0.27327   0.17531   0.62338   1.000
    O397    O    0.27385   0.67706   0.62208   1.000
    O398    O    0.77302   0.17899   0.62212   1.000
    O399    O    0.77391   0.67691   0.62216   1.000
    O400    O    0.45855   0.17190   0.62289   1.000
    O401    O    0.46041   0.66930   0.62195   1.000
    O402    O    0.96015   0.16693   0.62152   1.000
    O403    O    0.96020   0.66958   0.62333   1.000
    O404    O    0.46248   0.16044   0.78390   1.000
    O405    O    0.14047   0.73370   0.37425   1.000
    O406    O    0.64241   0.23321   0.37457   1.000
    O407    O    0.64560   0.73231   0.37448   1.000
    O408    O    0.12255   0.42189   0.36400   1.000
    O409    O    0.12519   0.92166   0.36510   1.000
    O410    O    0.62257   0.42182   0.36520   1.000
    O411    O    0.62212   0.92179   0.36531   1.000
    O412    O    0.12007   0.42723   0.20345   1.000
    O413    O    0.11981   0.92718   0.20373   1.000
    O414    O    0.62039   0.42705   0.20370   1.000
    O415    O    0.62249   0.92678   0.20385   1.000
    O416    O    0.22423   0.32761   0.21624   1.000
    O417    O    0.22489   0.82814   0.21646   1.000
    O418    O    0.72434   0.32605   0.21641   1.000
    O419    O    0.72565   0.82536   0.21512   1.000
    O420    O    0.22609   0.32307   0.37782   1.000
    O421    O    0.22696   0.82098   0.37791   1.000
    O422    O    0.72615   0.32304   0.37799   1.000
    O423    O    0.72673   0.82442   0.37660   1.000
    O424    O    0.03979   0.33043   0.37650   1.000
    O425    O    0.03982   0.83306   0.37848   1.000
    O426    O    0.53965   0.33058   0.37800   1.000
    O427    O    0.54140   0.82808   0.37713   1.000
    O428    O    0.03687   0.33859   0.21519   1.000
    O429    O    0.03855   0.83612   0.21692   1.000
    O430    O    0.53697   0.33859   0.21650   1.000
    O431    O    0.53751   0.83944   0.21609   1.000
loop_
    _geom_bond_atom_site_label_1
    _geom_bond_atom_site_label_2
    _geom_bond_distance
    _geom_bond_site_symmetry_2
    _ccdc_geom_bond_type
    C249   C245      1.49117      .   S
    C249   N364      1.29895  1_554   S
    C249   H68       1.03766  1_554   S
    C256   C260      1.39505      .   S
    C256   N367      1.33948  1_554   S
    C256   H75       1.07934  1_554   S
    C255   C259      1.39485      .   S
    C255   N366      1.34540  1_554   S
    C255   H74       1.08566  1_554   S
    C254   C258      1.39777      .   S
    C254   N365      1.34380  1_554   S
    C254   H73       1.08398  1_554   S
    C253   C257      1.40100      .   S
    C253   N364      1.34246  1_554   S
    C253   H72       1.08227  1_554   S
    C252   C248      1.48639      .   S
    C252   N367      1.30160  1_554   S
    C252   H71       1.03963  1_554   S
    C251   C247      1.48113      .   S
    C251   N366      1.30351  1_554   S
    C251   H70       1.04225  1_554   S
    C250   C246      1.47890      .   S
    C250   N365      1.30485  1_554   S
    C250   H69       1.04319  1_554   S
    H144   C351      1.09044  1_554   S
    H141   C348      1.08981  1_554   S
    H142   C349      1.08943  1_554   S
    H143   C350      1.08987  1_554   S
    H145   C352      1.08856  1_554   S
    H147   C354      1.08910  1_554   S
    H148   C355      1.08913  1_554   S
    N372   Zn7       2.07034      .   S
    N372   C348      1.34820  1_554   S
    N372   C352      1.34852  1_554   S
    H146   C353      1.08917  1_554   S
    N375   Zn10      2.07057      .   S
    N375   C351      1.34868  1_554   S
    N375   C355      1.34867  1_554   S
    N374   Zn9       2.06784      .   S
    N374   C350      1.34815  1_554   S
    N374   C354      1.34859  1_554   S
    N373   Zn8       2.06752      .   S
    N373   C349      1.34807  1_554   S
    N373   C353      1.34863  1_554   S
    C259   H78       1.09097      .   S
    C259   C243      1.40409      .   S
    C260   H79       1.09633      .   S
    C260   C244      1.40997      .   S
    C258   H77       1.09071      .   S
    C258   C242      1.40419      .   S
    C257   H76       1.09088      .   S
    C257   C241      1.40412      .   S
    C246   H65       1.08979      .   S
    C246   C242      1.40336      .   S
    C247   H66       1.08977      .   S
    C247   C243      1.40333      .   S
    C248   H67       1.08981      .   S
    C248   C244      1.40329      .   S
    C245   H64       1.08980      .   S
    C245   C241      1.40334      .   S
    H88    C276      1.09030      .   S
    H89    C277      1.08955      .   S
    H91    C279      1.08953      .   S
    H90    C278      1.08950      .   S
    H92    C280      1.08947      .   S
    H93    C281      1.08936      .   S
    H95    C283      1.09020      .   S
    H94    C282      1.08834      .   S
    H115   C315      1.08905      .   S
    H110   C310      1.08910      .   S
    H111   C311      1.08908      .   S
    H114   C314      1.08917      .   S
    H108   C308      1.08915      .   S
    H112   C312      1.08845      .   S
    H109   C309      1.08915      .   S
    H113   C313      1.08918      .   S
    C243   C231      1.47757      .   S
    C242   C230      1.47753      .   S
    C241   C229      1.47758      .   S
    C244   C232      1.47756      .   S
    Zn7    O412      2.06270      .   S
    Zn7    O211      2.07747      .   S
    Zn7    O428      2.07292      .   S
    Zn7    O416      2.08901      .   S
    Zn10   O415      2.06032      .   S
    Zn10   O214      2.07873      .   S
    Zn10   O419      2.10216      .   S
    Zn10   O431      2.06936      .   S
    Zn9    O414      2.06313      .   S
    Zn9    O213      2.08144      .   S
    Zn9    O418      2.08838      .   S
    Zn9    O430      2.07189      .   S
    Zn8    O413      2.06528      .   S
    Zn8    O212      2.08894      .   S
    Zn8    O417      2.09028      .   S
    Zn8    O429      2.06040      .   S
    C276   C280      1.39280      .   S
    C276   C272      1.40365      .   S
    C277   C281      1.39260      .   S
    C277   C273      1.40362      .   S
    C279   C283      1.39268      .   S
    C279   C275      1.40367      .   S
    C278   C282      1.39231      .   S
    C278   C274      1.40358      .   S
    O412   C284      1.27624      .   S
    O414   C286      1.27692      .   S
    C280   C265      1.40409      .   S
    O413   C285      1.27636      .   S
    C281   C266      1.40459      .   S
    O415   C287      1.27675      .   S
    C283   C268      1.40441      .   S
    C282   C267      1.40566      .   S
    C315   C311      1.39109      .   S
    C315   C295      1.40274      .   S
    C310   C314      1.39124      .   S
    C310   C306      1.40250      .   S
    C311   C307      1.40178      .   S
    C314   C294      1.40306      .   S
    O211   C261      1.27679      .   S
    O212   C262      1.27630      .   S
    C312   C308      1.39114      .   S
    C312   C292      1.40377      .   S
    C308   C304      1.40250      .   S
    O214   C264      1.27698      .   S
    O213   C263      1.27646      .   S
    C309   C313      1.39127      .   S
    C309   C305      1.40281      .   S
    C313   C293      1.40331      .   S
    O419   C291      1.27632      .   S
    O428   C316      1.27268      .   S
    O431   C319      1.27305      .   S
    O416   C288      1.27700      .   S
    O418   C290      1.27721      .   S
    O417   C289      1.27697      .   S
    O430   C318      1.27319      .   S
    O429   C317      1.27375      .   S
    C231   C235      1.40241      .   S
    C231   C227      1.40250      .   S
    C230   C234      1.40246      .   S
    C230   C226      1.40265      .   S
    C229   C233      1.40249      .   S
    C229   C225      1.40269      .   S
    C232   C236      1.40254      .   S
    C232   C228      1.40251      .   S
    H57    C234      1.08917      .   S
    H58    C235      1.08903      .   S
    H56    C233      1.08898      .   S
    H59    C236      1.08894      .   S
    H54    C227      1.09026      .   S
    H53    C226      1.08987      .   S
    H52    C225      1.08981      .   S
    H55    C228      1.08965      .   S
    C284   C273      1.50488      .   S
    C284   O408      1.26073      .   S
    C285   C272      1.50500  1_565   S
    C285   O409      1.27163      .   S
    C286   C275      1.50475      .   S
    C286   O410      1.27160      .   S
    C287   C274      1.50462  1_565   S
    C287   O411      1.27142      .   S
    C272   C136      1.40284      .   S
    C273   C269      1.40284      .   S
    C275   C271      1.40279      .   S
    C274   C270      1.40278      .   S
    C265   C261      1.50432      .   S
    C265   C132      1.40354      .   S
    C266   C262      1.50450      .   S
    C266   C133      1.40312      .   S
    C268   C264      1.50472      .   S
    C268   C135      1.40334      .   S
    C267   C263      1.50434      .   S
    C267   C134      1.40314      .   S
    C261   O215      1.27450      .   S
    C262   O405      1.27493      .   S
    C264   O407      1.27436      .   S
    C263   O406      1.27470      .   S
    C316   C306      1.50084  1_455   S
    C316   O424      1.27462      .   S
    C291   C295      1.49936      .   S
    C291   O423      1.27351      .   S
    C306   C302      1.40257      .   S
    C295   C299      1.40228      .   S
    C319   C305      1.50153      .   S
    C319   O427      1.27525      .   S
    C294   C290      1.49966      .   S
    C294   C298      1.40219      .   S
    C318   C304      1.50040      .   S
    C318   O426      1.27591      .   S
    C307   C317      1.49963  1_655   S
    C307   C303      1.40304      .   S
    C288   C292      1.49947      .   S
    C288   O420      1.27336      .   S
    C290   O422      1.27333      .   S
    C292   C296      1.40209      .   S
    C304   C300      1.40250      .   S
    C317   O425      1.27443      .   S
    C289   C293      1.50132      .   S
    C289   O421      1.27362      .   S
    C305   C301      1.40272      .   S
    C293   C297      1.40166      .   S
    C234   C238      1.38887      .   S
    C235   C239      1.38896      .   S
    C233   C237      1.38868      .   S
    C236   C240      1.38846      .   S
    C227   C223      1.38803      .   S
    C226   C222      1.38816      .   S
    C228   C224      1.38869      .   S
    C225   C221      1.38810      .   S
    O408   Zn11      2.08066      .   S
    O409   Zn12      2.07642      .   S
    O410   Zn13      2.07760      .   S
    O411   Zn14      2.08008      .   S
    C136   C132      1.39171      .   S
    C136   H84       1.08895      .   S
    C269   C133      1.39197      .   S
    C269   H85       1.08904      .   S
    C271   C135      1.39189      .   S
    C271   H87       1.08849      .   S
    O405   Zn12      2.09982      .   S
    O215   Zn11      2.10441      .   S
    C270   C134      1.39204      .   S
    C270   H86       1.08902      .   S
    O407   Zn14      2.11380      .   S
    O406   Zn13      2.10399      .   S
    C132   H80       1.08722      .   S
    C133   H81       1.08730      .   S
    C135   H83       1.08719      .   S
    C134   H82       1.08729      .   S
    O424   Zn11      2.06348      .   S
    O423   Zn14      2.05534      .   S
    O427   Zn14      2.06442      .   S
    O420   Zn11      2.06461      .   S
    O421   Zn12      2.06934      .   S
    O422   Zn13      2.06599      .   S
    O426   Zn13      2.06443      .   S
    O425   Zn12      2.06236      .   S
    C302   C298      1.39034      .   S
    C302   H106      1.08897      .   S
    C299   C303      1.39011      .   S
    C299   H99       1.08816      .   S
    C298   H98       1.08814      .   S
    C303   H107      1.08889      .   S
    C296   C300      1.39032      .   S
    C296   H96       1.08750      .   S
    C300   H104      1.08895      .   S
    C301   C297      1.39106      .   S
    C301   H105      1.08903      .   S
    C297   H97       1.08881      .   S
    Zn14   N371      2.06325      .   S
    Zn11   N368      2.06290      .   S
    Zn13   N370      2.06639      .   S
    Zn12   N369      2.06584      .   S
    C238   H61       1.08890      .   S
    C238   N361      1.34959      .   S
    C239   H62       1.08892      .   S
    C239   N362      1.34991      .   S
    C237   H60       1.08896      .   S
    C237   N360      1.34970      .   S
    C240   H63       1.08896      .   S
    C240   N363      1.34983      .   S
    C223   H50       1.08938      .   S
    C223   N362      1.35035      .   S
    C222   H49       1.08939      .   S
    C222   N361      1.35029      .   S
    C221   H48       1.08938      .   S
    C221   N360      1.35014      .   S
    C224   H51       1.08939      .   S
    C224   N363      1.35028      .   S
    N362   Zn5       2.06627      .   S
    N361   Zn4       2.06649      .   S
    N360   Zn3       2.06339      .   S
    N363   Zn6       2.06291      .   S
    N368   C320      1.35028      .   S
    N368   C336      1.34976      .   S
    N371   C323      1.35028      .   S
    N371   C339      1.34980      .   S
    N370   C322      1.35050      .   S
    N370   C338      1.34980      .   S
    N369   C321      1.35000      .   S
    N369   C337      1.34985      .   S
    H116   C320      1.08947      .   S
    H119   C323      1.08938      .   S
    H118   C322      1.08941      .   S
    H117   C321      1.08866      .   S
    H34    C195      1.08819      .   S
    H35    C196      1.08807      .   S
    H36    C197      1.08891      .   S
    H39    C200      1.08883      .   S
    H38    C199      1.08911      .   S
    H33    C194      1.08818      .   S
    H31    C193      1.08816      .   S
    H37    C198      1.08886      .   S
    H128   C336      1.08890      .   S
    H129   C337      1.08858      .   S
    H131   C339      1.08889      .   S
    H130   C338      1.08886      .   S
    H16    C162      1.08723      .   S
    H15    C161      1.08754      .   S
    H17    C163      1.08727      .   S
    H18    C164      1.08721      .   S
    H20    C166      1.08906      .   S
    H19    C165      1.08856      .   S
    H21    C167      1.08897      .   S
    H22    C168      1.08889      .   S
    C320   C324      1.38827      .   S
    C323   C327      1.38810      .   S
    C322   C326      1.38818      .   S
    C321   C325      1.38924      .   S
    C336   C332      1.38860      .   S
    C339   C335      1.38884      .   S
    C337   C333      1.38962      .   S
    C338   C334      1.38875      .   S
    Zn5    O402      2.06231      .   S
    Zn5    O398      2.06943      .   S
    Zn5    O382      2.09978      .   S
    Zn5    O386      2.07636      .   S
    Zn4    O401      2.06493      .   S
    Zn4    O397      2.06614      .   S
    Zn4    O381      2.10277      .   S
    Zn4    O385      2.07728      .   S
    Zn6    O399      2.06443      .   S
    Zn6    O403      2.06317      .   S
    Zn6    O383      2.10456      .   S
    Zn6    O387      2.07858      .   S
    Zn3    O400      2.06512      .   S
    Zn3    O396      2.05436      .   S
    Zn3    O380      2.11366      .   S
    Zn3    O384      2.08113      .   S
    C195   C199      1.39108      .   S
    C195   C191      1.40243      .   S
    C199   C203      1.40265      .   S
    C200   C196      1.39026      .   S
    C200   C204      1.40245      .   S
    C196   C192      1.40213      .   S
    C197   C193      1.39010      .   S
    C197   C201      1.40243      .   S
    C194   C198      1.39036      .   S
    C194   C190      1.40207      .   S
    C193   C189      1.40225      .   S
    C198   C202      1.40253      .   S
    O402   C219      1.27441      .   S
    O401   C218      1.27503      .   S
    O397   C186      1.27339      .   S
    O398   C187      1.27356      .   S
    O399   C188      1.27335      .   S
    O400   C217      1.27519      .   S
    O403   C220      1.27489      .   S
    O396   C185      1.27355      .   S
    C162   C166      1.39205      .   S
    C162   C158      1.40316      .   S
    C161   C165      1.39188      .   S
    C161   C157      1.40305      .   S
    C163   C167      1.39200      .   S
    C163   C159      1.40318      .   S
    C164   C168      1.39170      .   S
    C164   C160      1.40297      .   S
    O381   C154      1.27459      .   S
    O380   C153      1.27433      .   S
    O383   C156      1.27448      .   S
    C166   C170      1.40269      .   S
    O382   C155      1.27492      .   S
    C165   C169      1.36597      .   S
    C167   C171      1.40294      .   S
    C168   C172      1.40280      .   S
    O384   C181      1.27124      .   S
    O385   C182      1.27167      .   S
    O386   C183      1.27162      .   S
    O387   C184      1.27056      .   S
    C324   H120      1.08984      .   S
    C324   C328      1.40273      .   S
    C327   H123      1.08981      .   S
    C327   C331      1.40255      .   S
    C326   H122      1.08987      .   S
    C326   C330      1.40265      .   S
    C325   H121      1.08955      .   S
    C325   C329      1.40235      .   S
    C332   H124      1.08867      .   S
    C332   C328      1.40254      .   S
    C335   H127      1.08858      .   S
    C335   C331      1.40232      .   S
    C333   H125      1.08905      .   S
    C333   C329      1.40220      .   S
    C334   H126      1.08925      .   S
    C334   C330      1.40251      .   S
    C191   C187      1.50136      .   S
    C191   C103      1.40320      .   S
    C203   C217      1.50156      .   S
    C203   C207      1.40286      .   S
    C204   C218      1.50035      .   S
    C204   C100      1.40263      .   S
    C219   C201      1.49963  1_655   S
    C219   O209      1.27372      .   S
    C187   O394      1.27704      .   S
    C192   C188      1.49941      .   S
    C192   C216      1.40300      .   S
    C218   O208      1.27318      .   S
    C186   C190      1.49963      .   S
    C186   O393      1.27704      .   S
    C201   C205      1.40230      .   S
    C188   O395      1.27701      .   S
    C190   C102      1.40299      .   S
    C217   O404      1.27295      .   S
    C202   C220      1.50073  1_455   S
    C202   C206      1.40257      .   S
    C189   C185      1.49928      .   S
    C189   C101      1.40265      .   S
    C220   O210      1.27261      .   S
    C185   O392      1.27641      .   S
    C154   C158      1.50446      .   S
    C154   O377      1.27668      .   S
    C153   C157      1.50469      .   S
    C153   O376      1.27700      .   S
    C155   C159      1.50452      .   S
    C155   O378      1.27641      .   S
    C156   C160      1.50427      .   S
    C156   O379      1.27668      .   S
    C158   C178      1.40474      .   S
    C157   C177      1.40478      .   S
    C159   C179      1.40458      .   S
    C160   C180      1.40469      .   S
    C169   C182      1.50754      .   S
    C169   C173      1.43897      .   S
    C170   C181      1.50494  1_565   S
    C170   C174      1.40369      .   S
    C171   C184      1.50486      .   S
    C171   C175      1.40357      .   S
    C172   C183      1.50499  1_565   S
    C172   C176      1.40366      .   S
    C181   O388      1.27695      .   S
    C182   O389      1.27636      .   S
    C183   O390      1.27635      .   S
    C184   O391      1.27733      .   S
    C328   C340      1.47756      .   S
    C331   C343      1.47785      .   S
    C330   C342      1.47753      .   S
    C329   C341      1.47786      .   S
    O209   Zn1       2.06033      .   S
    O208   Zn0       2.07191      .   S
    O394   Zn1       2.09061      .   S
    O393   Zn0       2.08723      .   S
    O395   Zn2       2.08874      .   S
    O404   Zn32      2.06908      .   S
    O210   Zn2       2.07266      .   S
    O392   Zn32      2.10246      .   S
    C103   C207      1.39126      .   S
    C103   H46       1.08922      .   S
    C207   H42       1.08903      .   S
    O377   Zn0       2.08035      .   S
    O376   Zn32      2.07821      .   S
    C216   C100      1.39112      .   S
    C216   H47       1.08914      .   S
    C100   H43       1.08843      .   S
    O378   Zn1       2.08892      .   S
    O379   Zn2       2.07751      .   S
    C102   C206      1.39119      .   S
    C102   H45       1.08925      .   S
    C205   C101      1.39108      .   S
    C205   H40       1.08909      .   S
    C206   H41       1.08913      .   S
    C101   H44       1.08916      .   S
    C178   C174      1.39251      .   S
    C178   H28       1.08935      .   S
    C177   C173      1.39266      .   S
    C177   H27       1.08941      .   S
    C179   C175      1.39259      .   S
    C179   H29       1.08940      .   S
    O388   Zn32      2.06060      .   S
    O390   Zn1       2.06525      .   S
    C180   C176      1.39277      .   S
    C180   H30       1.08950      .   S
    O389   Zn0       2.06351      .   S
    O391   Zn2       2.06287      .   S
    C174   H24       1.08947      .   S
    C173   H23       1.08956      .   S
    C175   H25       1.08913      .   S
    C176   H26       1.08955      .   S
    Zn0    N365      2.06934      .   S
    Zn1    N366      2.06746      .   S
    Zn32   N364      2.07058      .   S
    Zn2    N367      2.07034      .   S
    C340   C344      1.40335      .   S
    C340   C356      1.40417      .   S
    C343   C347      1.40332      .   S
    C343   C359      1.40406      .   S
    C342   C346      1.40339      .   S
    C342   C358      1.40417      .   S
    C341   C345      1.40334      .   S
    C341   C357      1.40344      .   S
    H140   C347      1.08982      .   S
    H137   C344      1.08982      .   S
    H138   C345      1.08980      .   S
    H139   C346      1.08983      .   S
    H149   C356      1.09130      .   S
    H151   C358      1.09071      .   S
    H152   C359      1.09085      .   S
    H150   C357      1.09031      .   S
    C347   C351      1.38864      .   S
    C344   C348      1.38979      .   S
    C345   C349      1.38946      .   S
    C346   C350      1.38960      .   S
    C356   C352      1.38844      .   S
    C359   C355      1.38863      .   S
    C358   C354      1.38847      .   S
    C357   C353      1.38980      .   S
    Zn32   Zn3       2.86122      .   S
    Zn0    Zn4       2.85979      .   S
    Zn1    Zn5       2.86131      .   S
    Zn2    Zn6       2.86162      .   S
    Zn7    Zn11      2.86162      .   S
    Zn8    Zn12      2.86103      .   S
    Zn9    Zn13      2.86091      .   S
    Zn10   Zn14      2.86121      .   S
