# CIF file generated by openbabel 2.4.90, see http://openbabel.sf.net
data_I
_chemical_name_common ''
_cell_length_a 22.113
_cell_length_b 22.118
_cell_length_c 14.068
_cell_angle_alpha 88.045
_cell_angle_beta 90.645
_cell_angle_gamma 80.131
_space_group_name_H-M_alt 'P 1'
_space_group_name_Hall 'P 1'
loop_
    _symmetry_equiv_pos_as_xyz
    x,y,z
loop_
    _atom_site_label
    _atom_site_type_symbol
    _atom_site_fract_x
    _atom_site_fract_y
    _atom_site_fract_z
    _atom_site_occupancy
    N0      N    0.86844   0.16761   0.20574   1.000
    N1      N    0.11861   0.66813   0.70302   1.000
    N2      N    0.87102   0.91924   0.71122   1.000
    N3      N    0.61764   0.16866   0.70218   1.000
    N4      N    0.36854   0.16797   0.20626   1.000
    N5      N    0.13154   0.83225   0.79391   1.000
    N6      N    0.37000   0.66756   0.20578   1.000
    N7      N    0.11754   0.16858   0.70305   1.000
    N8      N    0.12996   0.33249   0.79327   1.000
    N9      N    0.38232   0.83132   0.29782   1.000
    N10     N    0.37110   0.41938   0.71063   1.000
    N11     N    0.87149   0.41926   0.71109   1.000
    N12     N    0.63145   0.83201   0.79332   1.000
    N13     N    0.12897   0.08075   0.28876   1.000
    N14     N    0.12851   0.58073   0.28888   1.000
    N15     N    0.88243   0.83140   0.29695   1.000
    N16     N    0.37121   0.91933   0.71072   1.000
    N17     N    0.88142   0.33155   0.29690   1.000
    N18     N    0.87003   0.66749   0.20625   1.000
    N19     N    0.38138   0.33201   0.29753   1.000
    N20     N    0.63001   0.33241   0.79388   1.000
    N21     N    0.61863   0.66798   0.70244   1.000
    N22     N    0.62875   0.08056   0.28936   1.000
    N23     N    0.62896   0.58053   0.28904   1.000
    Zr24    Zr   0.63248   0.82983   0.29291   1.000
    O25     O    0.63157   0.83106   0.12441   1.000
    O26     O    0.63266   0.83027   0.46198   1.000
    O27     O    0.63285   0.72913   0.29176   1.000
    O28     O    0.62926   0.93111   0.29038   1.000
    O29     O    0.73328   0.82976   0.29476   1.000
    O30     O    0.53167   0.83108   0.29522   1.000
    Zr31    Zr   0.86856   0.66969   0.70710   1.000
    O32     O    0.86949   0.66852   0.87549   1.000
    O33     O    0.96934   0.66838   0.70523   1.000
    O34     O    0.86786   0.77047   0.70837   1.000
    O35     O    0.87151   0.56854   0.70985   1.000
    O36     O    0.76778   0.66969   0.70483   1.000
    O37     O    0.86862   0.66926   0.53792   1.000
    Zr38    Zr   0.63141   0.33007   0.29334   1.000
    O39     O    0.63048   0.33127   0.12488   1.000
    O40     O    0.63199   0.22931   0.29212   1.000
    O41     O    0.62864   0.43125   0.29045   1.000
    O42     O    0.73224   0.32990   0.29520   1.000
    O43     O    0.53064   0.33157   0.29539   1.000
    O44     O    0.63140   0.33062   0.46244   1.000
    Zr45    Zr   0.13143   0.33030   0.29279   1.000
    O46     O    0.13050   0.33147   0.12433   1.000
    O47     O    0.23222   0.33030   0.29511   1.000
    O48     O    0.13213   0.22952   0.29156   1.000
    O49     O    0.12849   0.43145   0.29007   1.000
    O50     O    0.03066   0.33151   0.29467   1.000
    O51     O    0.13138   0.33073   0.46190   1.000
    Zr52    Zr   0.36865   0.66970   0.70664   1.000
    O53     O    0.36956   0.66859   0.87501   1.000
    O54     O    0.26782   0.66976   0.70476   1.000
    O55     O    0.46940   0.66831   0.70458   1.000
    O56     O    0.37144   0.56859   0.70908   1.000
    O57     O    0.36863   0.66924   0.53746   1.000
    O58     O    0.36803   0.77051   0.70790   1.000
    Zr59    Zr   0.36750   0.17008   0.70708   1.000
    O60     O    0.36842   0.16888   0.87547   1.000
    O61     O    0.26670   0.17017   0.70523   1.000
    O62     O    0.46830   0.16886   0.70478   1.000
    O63     O    0.36715   0.27079   0.70814   1.000
    O64     O    0.37071   0.06880   0.70964   1.000
    O65     O    0.36732   0.16967   0.53790   1.000
    Zr66    Zr   0.13215   0.83007   0.29337   1.000
    O67     O    0.13149   0.83123   0.12490   1.000
    O68     O    0.13237   0.72936   0.29191   1.000
    O69     O    0.03150   0.83134   0.29526   1.000
    O70     O    0.12920   0.93132   0.29034   1.000
    O71     O    0.23302   0.82984   0.29557   1.000
    O72     O    0.13235   0.83055   0.46246   1.000
    Zr73    Zr   0.86783   0.16992   0.70663   1.000
    O74     O    0.96847   0.16864   0.70473   1.000
    O75     O    0.87079   0.06867   0.70965   1.000
    O76     O    0.76695   0.17015   0.70444   1.000
    O77     O    0.86762   0.27062   0.70807   1.000
    O78     O    0.86850   0.16872   0.87501   1.000
    O79     O    0.86763   0.16939   0.53744   1.000
loop_
    _geom_bond_atom_site_label_1
    _geom_bond_atom_site_label_2
    _geom_bond_distance
    _geom_bond_site_symmetry_2
    _ccdc_geom_bond_type
    Zr24   O25       2.36953      .   S
    N12    O25       4.65714  1_556   S
    Zr24   O26       2.37873      .   S
    N12    O26       4.66307      .   S
    Zr24   O27       2.22667      .   S
    N23    O27       3.30402      .   S
    Zr24   O28       2.22795      .   S
    N22    O28       3.30318  1_545   S
    Zr24   O29       2.22839      .   S
    N15    O29       3.30442      .   S
    Zr24   O30       2.22530      .   S
    N9     O30       3.30223      .   S
    Zr31   O32       2.36793      .   S
    N18    O32       4.65229  1_554   S
    Zr31   O33       2.22426      .   S
    N1     O33       3.30032  1_455   S
    Zr31   O34       2.22722      .   S
    N2     O34       3.30467      .   S
    Zr31   O35       2.22602      .   S
    N11    O35       3.30130      .   S
    Zr31   O36       2.22843      .   S
    N21    O36       3.30456      .   S
    Zr31   O37       2.38044      .   S
    N18    O37       4.66784      .   S
    Zr38   O39       2.36901      .   S
    N20    O39       4.65564  1_556   S
    Zr38   O40       2.22713      .   S
    N22    O40       3.30468      .   S
    Zr38   O41       2.22715      .   S
    N23    O41       3.30234      .   S
    Zr38   O42       2.22880      .   S
    N17    O42       3.30508      .   S
    Zr38   O43       2.22361      .   S
    N19    O43       3.29937      .   S
    Zr38   O44       2.37931      .   S
    N20    O44       4.66456      .   S
    Zr45   O46       2.36895      .   S
    N8     O46       4.65652  1_556   S
    Zr45   O47       2.22860      .   S
    N19    O47       3.30477      .   S
    Zr45   O48       2.22714      .   S
    N13    O48       3.30461      .   S
    Zr45   O49       2.22600      .   S
    N14    O49       3.30128      .   S
    Zr45   O50       2.22442      .   S
    N17    O50       3.30051  1_655   S
    Zr45   O51       2.37942      .   S
    N8     O51       4.66360      .   S
    Zr52   O53       2.36786      .   S
    N6     O53       4.65240  1_554   S
    Zr52   O54       2.22935      .   S
    N1     O54       3.30567      .   S
    Zr52   O55       2.22340      .   S
    N21    O55       3.29915      .   S
    Zr52   O56       2.22577      .   S
    N10    O56       3.30074      .   S
    Zr52   O57       2.38034      .   S
    N6     O57       4.66787      .   S
    Zr52   O58       2.22812      .   S
    N16    O58       3.30584      .   S
    Zr59   O60       2.36801      .   S
    N4     O60       4.65278  1_554   S
    Zr59   O61       2.22837      .   S
    N7     O61       3.30436      .   S
    Zr59   O62       2.22526      .   S
    N3     O62       3.30222      .   S
    Zr59   O63       2.22675      .   S
    N10    O63       3.30399      .   S
    Zr59   O64       2.22816      .   S
    N16    O64       3.30363  1_565   S
    Zr59   O65       2.38025      .   S
    N4     O65       4.66741      .   S
    Zr66   O67       2.36913      .   S
    N5     O67       4.65575  1_556   S
    Zr66   O68       2.22735      .   S
    N14    O68       3.30495      .   S
    Zr66   O69       2.22140      .   S
    N15    O69       3.29665  1_655   S
    Zr66   O70       2.22812      .   S
    N13    O70       3.30371  1_545   S
    Zr66   O71       2.22964      .   S
    N9     O71       3.30707      .   S
    Zr66   O72       2.37918      .   S
    N5     O72       4.66435      .   S
    Zr73   O74       2.22129      .   S
    N7     O74       3.29649  1_455   S
    Zr73   O75       2.22807      .   S
    N2     O75       3.30362  1_565   S
    Zr73   O76       2.22981      .   S
    N3     O76       3.30728      .   S
    Zr73   O77       2.22733      .   S
    N11    O77       3.30495      .   S
    Zr73   O78       2.36789      .   S
    N0     O78       4.65189  1_554   S
    Zr73   O79       2.38054      .   S
    N0     O79       4.66813      .   S
