# CIF file generated by openbabel 2.4.90, see http://openbabel.sf.net
data_I
_chemical_name_common ''
_cell_length_a 13.417
_cell_length_b 13.831
_cell_length_c 16.197
_cell_angle_alpha 90.001
_cell_angle_beta 90.054
_cell_angle_gamma 90.106
_space_group_name_H-M_alt 'P 1'
_space_group_name_Hall 'P 1'
loop_
    _symmetry_equiv_pos_as_xyz
    x,y,z
loop_
    _atom_site_label
    _atom_site_type_symbol
    _atom_site_fract_x
    _atom_site_fract_y
    _atom_site_fract_z
    _atom_site_occupancy
    H0      H    0.78416   0.70320   0.31778   1.000
    H1      H    0.28389   0.70330   0.31813   1.000
    H2      H    0.78426   0.82027   0.19897   1.000
    H3      H    0.28428   0.82039   0.19930   1.000
    H4      H    0.46586   0.67943   0.30058   1.000
    H5      H    0.00000   0.67935   0.30025   1.000
    H6      H    0.46613   0.79674   0.18186   1.000
    H7      H    0.00000   0.79665   0.18153   1.000
    H8      H    0.46513   0.79808   0.81554   1.000
    H9      H    0.00000   0.79813   0.81526   1.000
    H10     H    0.46625   0.68098   0.69671   1.000
    H11     H    0.00000   0.68107   0.69642   1.000
    H12     H    0.78385   0.81942   0.80280   1.000
    H13     H    0.28379   0.81914   0.80318   1.000
    H14     H    0.78481   0.70213   0.68407   1.000
    H15     H    0.28497   0.70182   0.68448   1.000
    H16     H    0.71583   0.29677   0.68217   1.000
    H17     H    0.21613   0.29674   0.68190   1.000
    H18     H    0.71571   0.17971   0.80097   1.000
    H19     H    0.21576   0.17966   0.80074   1.000
    H20     H    0.03411   0.32064   0.69946   1.000
    H21     H    0.53436   0.32066   0.69974   1.000
    H22     H    0.03383   0.20334   0.81819   1.000
    H23     H    0.53384   0.20335   0.81844   1.000
    H24     H    0.03492   0.20198   0.18448   1.000
    H25     H    0.53494   0.20189   0.18474   1.000
    H26     H    0.03378   0.31908   0.30330   1.000
    H27     H    0.53364   0.31894   0.30359   1.000
    H28     H    0.71620   0.18059   0.19721   1.000
    H29     H    0.21617   0.18093   0.19684   1.000
    H30     H    0.71523   0.29787   0.31595   1.000
    H31     H    0.21501   0.29824   0.31553   1.000
    C32     C    0.62492   0.68507   0.31637   1.000
    C33     C    0.12468   0.68510   0.31639   1.000
    C34     C    0.71498   0.72431   0.28769   1.000
    C35     C    0.21480   0.72439   0.28787   1.000
    C36     C    0.62522   0.81503   0.18377   1.000
    C37     C    0.12528   0.81505   0.18377   1.000
    C38     C    0.71516   0.78885   0.22187   1.000
    C39     C    0.21512   0.78892   0.22205   1.000
    C40     C    0.53501   0.71115   0.27810   1.000
    C41     C    0.03488   0.71112   0.27793   1.000
    C42     C    0.53515   0.77573   0.21230   1.000
    C43     C    0.03515   0.77569   0.21212   1.000
    C44     C    0.62450   0.81496   0.81637   1.000
    C45     C    0.12440   0.81487   0.81641   1.000
    C46     C    0.53466   0.77646   0.78638   1.000
    C47     C    0.03461   0.77645   0.78625   1.000
    C48     C    0.62557   0.68505   0.68374   1.000
    C49     C    0.12571   0.68494   0.68379   1.000
    C50     C    0.53517   0.71192   0.72056   1.000
    C51     C    0.03523   0.71191   0.72042   1.000
    C52     C    0.71487   0.78818   0.77938   1.000
    C53     C    0.21485   0.78798   0.77961   1.000
    C54     C    0.71543   0.72362   0.71358   1.000
    C55     C    0.21551   0.72340   0.71381   1.000
    C56     C    0.87506   0.31496   0.68363   1.000
    C57     C    0.37535   0.31493   0.68362   1.000
    C58     C    0.78500   0.27569   0.71228   1.000
    C59     C    0.28523   0.27565   0.71215   1.000
    C60     C    0.87474   0.18500   0.81624   1.000
    C61     C    0.37476   0.18497   0.81624   1.000
    C62     C    0.78482   0.21115   0.77810   1.000
    C63     C    0.28492   0.21111   0.77797   1.000
    C64     C    0.96496   0.28890   0.72192   1.000
    C65     C    0.46516   0.28889   0.72206   1.000
    C66     C    0.96482   0.22432   0.78773   1.000
    C67     C    0.46489   0.22431   0.78787   1.000
    C68     C    0.87555   0.18507   0.18364   1.000
    C69     C    0.37556   0.18518   0.18359   1.000
    C70     C    0.96539   0.22359   0.21363   1.000
    C71     C    0.46536   0.22358   0.21376   1.000
    C72     C    0.87445   0.31499   0.31627   1.000
    C73     C    0.37427   0.31510   0.31622   1.000
    C74     C    0.96486   0.28813   0.27945   1.000
    C75     C    0.46475   0.28812   0.27958   1.000
    C76     C    0.78518   0.21183   0.22063   1.000
    C77     C    0.28512   0.21207   0.22040   1.000
    C78     C    0.78461   0.27640   0.28643   1.000
    C79     C    0.28446   0.27665   0.28620   1.000
loop_
    _geom_bond_atom_site_label_1
    _geom_bond_atom_site_label_2
    _geom_bond_distance
    _geom_bond_site_symmetry_2
    _ccdc_geom_bond_type
    H7     C43       0.74295      .   S
    H6     C42       1.08869      .   S
    C69    C71       1.40319      .   S
    C69    C77       1.40331      .   S
    C68    C70       1.40320      .   S
    C68    C76       1.40332      .   S
    C36    C42       1.40290      .   S
    C36    C38       1.40293      .   S
    C37    C43       1.40291      .   S
    C37    C39       1.40292      .   S
    H24    C70       1.08840  1_455   S
    H25    C71       1.08840      .   S
    H29    C77       1.08854      .   S
    H28    C76       1.08855      .   S
    H2     C38       1.08869      .   S
    H3     C39       1.08870      .   S
    C43    C41       1.39058      .   S
    C42    C40       1.39060      .   S
    C70    C74       1.39045      .   S
    C71    C75       1.39048      .   S
    C77    C79       1.39053      .   S
    C76    C78       1.39052      .   S
    C38    C34       1.39042      .   S
    C39    C35       1.39047      .   S
    C41    H5        0.73644      .   S
    C41    C33       1.40335      .   S
    C40    H4        1.08860      .   S
    C40    C32       1.40341      .   S
    C74    H26       1.08868  1_655   S
    C74    C72       1.40285      .   S
    C75    H27       1.08871      .   S
    C75    C73       1.40288      .   S
    C79    H31       1.08862      .   S
    C79    C73       1.40281      .   S
    C78    H30       1.08866      .   S
    C78    C72       1.40282      .   S
    C34    C32       1.40324      .   S
    C34    H0        1.08841      .   S
    C35    C33       1.40330      .   S
    C35    H1        1.08844      .   S
    H17    C59       1.08845      .   S
    H16    C58       1.08839      .   S
    C57    C59       1.40329      .   S
    C57    C65       1.40335      .   S
    C56    C58       1.40324      .   S
    C56    C64       1.40341      .   S
    C48    C54       1.40283      .   S
    C48    C50       1.40284      .   S
    C49    C55       1.40282      .   S
    C49    C51       1.40288      .   S
    H14    C54       1.08865      .   S
    H15    C55       1.08863      .   S
    H11    C51       0.74530      .   S
    H10    C50       1.08868      .   S
    H20    C64       1.08860  1_455   S
    H21    C65       1.08856      .   S
    C59    C63       1.39049      .   S
    C58    C62       1.39041      .   S
    C54    C52       1.39051      .   S
    C55    C53       1.39052      .   S
    C51    C47       1.39046      .   S
    C50    C46       1.39046      .   S
    C64    C66       1.39061      .   S
    C65    C67       1.39058      .   S
    C63    H19       1.08870      .   S
    C63    C61       1.40292      .   S
    C62    H18       1.08868      .   S
    C62    C60       1.40291      .   S
    C52    H12       1.08854      .   S
    C52    C44       1.40331      .   S
    C53    H13       1.08855      .   S
    C53    C45       1.40333      .   S
    C47    H9        0.72621      .   S
    C47    C45       1.40320      .   S
    C46    H8        1.08841      .   S
    C46    C44       1.40320      .   S
    C66    C60       1.40290      .   S
    C66    H22       1.08870  1_655   S
    C67    C61       1.40292      .   S
    C67    H23       1.08868      .   S
