# CIF file generated by openbabel 2.4.90, see http://openbabel.sf.net
data_I
_chemical_name_common ''
_cell_length_a 13.417
_cell_length_b 13.831
_cell_length_c 16.197
_cell_angle_alpha 90.001
_cell_angle_beta 90.054
_cell_angle_gamma 90.106
_space_group_name_H-M_alt 'P 1'
_space_group_name_Hall 'P 1'
loop_
    _symmetry_equiv_pos_as_xyz
    x,y,z
loop_
    _atom_site_label
    _atom_site_type_symbol
    _atom_site_fract_x
    _atom_site_fract_y
    _atom_site_fract_z
    _atom_site_occupancy
    Al0     Al   0.50001   0.00000   0.99998   1.000
    Al1     Al   0.75000   0.50002   0.50000   1.000
    Al2     Al   0.25000   0.50001   0.50001   1.000
    Al3     Al   0.75000   0.00001   0.00001   1.000
    Al4     Al   0.24999   0.99999   0.99998   1.000
    Al5     Al   0.99997   0.50001   0.50007   1.000
    Al6     Al   0.50004   0.50002   0.49994   1.000
    H7      H    0.62538   0.12615   0.01557   1.000
    H8      H    0.12538   0.12641   0.01461   1.000
    H9      H    0.78416   0.70320   0.31778   1.000
    H10     H    0.28389   0.70330   0.31813   1.000
    H11     H    0.78426   0.82027   0.19897   1.000
    H12     H    0.28428   0.82039   0.19930   1.000
    H13     H    0.46586   0.67943   0.30058   1.000
    H14     H    0.00000   0.67935   0.30025   1.000
    H15     H    0.46613   0.79674   0.18186   1.000
    H16     H    0.00000   0.79665   0.18153   1.000
    H17     H    0.62482   0.37426   0.51677   1.000
    H18     H    0.12477   0.37299   0.51197   1.000
    H19     H    0.46513   0.79808   0.81554   1.000
    H20     H    0.00000   0.79813   0.81526   1.000
    H21     H    0.46625   0.68098   0.69671   1.000
    H22     H    0.00000   0.68107   0.69642   1.000
    H23     H    0.78385   0.81942   0.80280   1.000
    H24     H    0.28379   0.81914   0.80318   1.000
    H25     H    0.78481   0.70213   0.68407   1.000
    H26     H    0.28497   0.70182   0.68448   1.000
    H27     H    0.87461   0.87406   0.98385   1.000
    H28     H    0.37463   0.87338   0.98635   1.000
    H29     H    0.71583   0.29677   0.68217   1.000
    H30     H    0.21613   0.29674   0.68190   1.000
    H31     H    0.71571   0.17971   0.80097   1.000
    Al32    Al   0.99999   0.00000   0.00002   1.000
    H33     H    0.21576   0.17966   0.80074   1.000
    H34     H    0.03411   0.32064   0.69946   1.000
    H35     H    0.53436   0.32066   0.69974   1.000
    H36     H    0.03383   0.20334   0.81819   1.000
    H37     H    0.53384   0.20335   0.81844   1.000
    H38     H    0.87519   0.62590   0.48364   1.000
    H39     H    0.37523   0.62702   0.48796   1.000
    H40     H    0.03492   0.20198   0.18448   1.000
    H41     H    0.53494   0.20189   0.18474   1.000
    H42     H    0.03378   0.31908   0.30330   1.000
    H43     H    0.53364   0.31894   0.30359   1.000
    H44     H    0.71620   0.18059   0.19721   1.000
    H45     H    0.21617   0.18093   0.19684   1.000
    H46     H    0.71523   0.29787   0.31595   1.000
    H47     H    0.21501   0.29824   0.31553   1.000
    C48     C    0.62458   0.61616   0.38738   1.000
    C49     C    0.12425   0.61624   0.38745   1.000
    C50     C    0.62492   0.68507   0.31637   1.000
    C51     C    0.12468   0.68510   0.31639   1.000
    C52     C    0.71498   0.72431   0.28769   1.000
    C53     C    0.21480   0.72439   0.28787   1.000
    C54     C    0.62560   0.88392   0.11256   1.000
    C55     C    0.12574   0.88394   0.11257   1.000
    C56     C    0.62522   0.81503   0.18377   1.000
    C57     C    0.12528   0.81505   0.18377   1.000
    C58     C    0.71516   0.78885   0.22187   1.000
    C59     C    0.21512   0.78892   0.22205   1.000
    C60     C    0.53501   0.71115   0.27810   1.000
    C61     C    0.03488   0.71112   0.27793   1.000
    C62     C    0.53515   0.77573   0.21230   1.000
    C63     C    0.03515   0.77569   0.21212   1.000
    C64     C    0.62405   0.88380   0.88743   1.000
    C65     C    0.12388   0.88375   0.88745   1.000
    C66     C    0.62450   0.81496   0.81637   1.000
    C67     C    0.12440   0.81487   0.81641   1.000
    C68     C    0.53466   0.77646   0.78638   1.000
    C69     C    0.03461   0.77645   0.78625   1.000
    C70     C    0.62604   0.61619   0.61252   1.000
    C71     C    0.12622   0.61609   0.61256   1.000
    C72     C    0.62557   0.68505   0.68374   1.000
    C73     C    0.12571   0.68494   0.68379   1.000
    C74     C    0.53517   0.71192   0.72056   1.000
    C75     C    0.03523   0.71191   0.72042   1.000
    C76     C    0.71487   0.78818   0.77938   1.000
    C77     C    0.21485   0.78798   0.77961   1.000
    C78     C    0.71543   0.72362   0.71358   1.000
    C79     C    0.21551   0.72340   0.71381   1.000
    C80     C    0.87540   0.38387   0.61261   1.000
    C81     C    0.37577   0.38379   0.61256   1.000
    C82     C    0.87506   0.31496   0.68363   1.000
    C83     C    0.37535   0.31493   0.68362   1.000
    C84     C    0.78500   0.27569   0.71228   1.000
    C85     C    0.28523   0.27565   0.71215   1.000
    C86     C    0.87436   0.11612   0.88745   1.000
    C87     C    0.37430   0.11607   0.88743   1.000
    C88     C    0.87474   0.18500   0.81624   1.000
    C89     C    0.37476   0.18497   0.81624   1.000
    C90     C    0.78482   0.21115   0.77810   1.000
    C91     C    0.28492   0.21111   0.77797   1.000
    C92     C    0.96496   0.28890   0.72192   1.000
    C93     C    0.46516   0.28889   0.72206   1.000
    C94     C    0.96482   0.22432   0.78773   1.000
    C95     C    0.46489   0.22431   0.78787   1.000
    C96     C    0.87601   0.11623   0.11259   1.000
    C97     C    0.37607   0.11631   0.11254   1.000
    C98     C    0.87555   0.18507   0.18364   1.000
    C99     C    0.37556   0.18518   0.18359   1.000
    C100    C    0.96539   0.22359   0.21363   1.000
    C101    C    0.46536   0.22358   0.21376   1.000
    C102    C    0.87398   0.38386   0.38748   1.000
    C103    C    0.37377   0.38395   0.38745   1.000
    C104    C    0.87445   0.31499   0.31627   1.000
    C105    C    0.37427   0.31510   0.31622   1.000
    C106    C    0.96486   0.28813   0.27945   1.000
    C107    C    0.46475   0.28812   0.27958   1.000
    C108    C    0.78518   0.21183   0.22063   1.000
    C109    C    0.28512   0.21207   0.22040   1.000
    C110    C    0.78461   0.27640   0.28643   1.000
    C111    C    0.28446   0.27665   0.28620   1.000
    O112    O    0.62510   0.05845   0.99995   1.000
    O113    O    0.12509   0.05841   0.99997   1.000
    O114    O    0.54113   0.90797   0.08301   1.000
    O115    O    0.04130   0.90806   0.08304   1.000
    O116    O    0.53990   0.58764   0.41352   1.000
    O117    O    0.03948   0.58784   0.41360   1.000
    O118    O    0.71047   0.91207   0.08664   1.000
    O119    O    0.21064   0.91203   0.08662   1.000
    O120    O    0.70893   0.59172   0.41707   1.000
    O121    O    0.20858   0.59178   0.41711   1.000
    O122    O    0.62491   0.44157   0.49994   1.000
    O123    O    0.12488   0.44170   0.50006   1.000
    O124    O    0.71087   0.58838   0.58649   1.000
    O125    O    0.21108   0.58836   0.58646   1.000
    O126    O    0.70849   0.90853   0.91697   1.000
    O127    O    0.20830   0.90851   0.91698   1.000
    O128    O    0.54148   0.59183   0.58313   1.000
    O129    O    0.04170   0.59166   0.58320   1.000
    O130    O    0.53939   0.91195   0.91370   1.000
    O131    O    0.03917   0.91187   0.91370   1.000
    O132    O    0.87491   0.94157   0.00000   1.000
    O133    O    0.37491   0.94164   0.00000   1.000
    O134    O    0.95882   0.09206   0.91698   1.000
    O135    O    0.45874   0.09198   0.91698   1.000
    O136    O    0.96009   0.41238   0.58648   1.000
    O137    O    0.46055   0.41219   0.58640   1.000
    O138    O    0.78948   0.08799   0.91338   1.000
    O139    O    0.28941   0.08796   0.91336   1.000
    O140    O    0.79106   0.40831   0.58292   1.000
    O141    O    0.29144   0.40826   0.58291   1.000
    O142    O    0.87509   0.55846   0.50007   1.000
    O143    O    0.37512   0.55834   0.49996   1.000
    O144    O    0.78916   0.41168   0.41350   1.000
    O145    O    0.28891   0.41167   0.41356   1.000
    O146    O    0.79158   0.09149   0.08305   1.000
    O147    O    0.29165   0.09155   0.08301   1.000
    O148    O    0.95854   0.40821   0.41689   1.000
    O149    O    0.45829   0.40838   0.41680   1.000
    O150    O    0.96068   0.08808   0.08631   1.000
    O151    O    0.46077   0.08819   0.08629   1.000
loop_
    _geom_bond_atom_site_label_1
    _geom_bond_atom_site_label_2
    _geom_bond_distance
    _geom_bond_site_symmetry_2
    _ccdc_geom_bond_type
    O132   Al32      1.86135  1_565   S
    O132   H27       0.96960  1_554   S
    O133   H28       0.96972  1_554   S
    O133   Al0       1.86104  1_564   S
    Al3    O146      1.92801      .   S
    Al3    O118      1.93092  1_545   S
    Al3    O138      1.93120  1_554   S
    Al3    O126      1.92766  1_544   S
    Al32   O115      1.93237  1_645   S
    Al32   O150      1.92864      .   S
    Al32   O131      1.92877  1_644   S
    Al32   O134      1.93297  1_554   S
    Al32   O113      1.86144  1_654   S
    H8     O113      0.96983  1_554   S
    H7     O112      0.96990  1_554   S
    O147   C97       1.27534      .   S
    O147   Al4       1.92877  1_544   S
    O114   C54       1.27453      .   S
    O114   Al0       1.93260  1_564   S
    O115   C55       1.27428      .   S
    O146   C96       1.27539      .   S
    O151   C97       1.27523      .   S
    O151   Al0       1.92948  1_554   S
    O150   C96       1.27507      .   S
    O119   C55       1.27452      .   S
    O119   Al4       1.93065  1_554   S
    O118   C54       1.27420      .   S
    C97    C99       1.49393      .   S
    C54    C56       1.49602      .   S
    C55    C57       1.49597      .   S
    C96    C98       1.49376      .   S
    H16    C63       0.74295      .   S
    H15    C62       1.08869      .   S
    C99    C101      1.40319      .   S
    C99    C109      1.40331      .   S
    C98    C100      1.40320      .   S
    C98    C108      1.40332      .   S
    C56    C62       1.40290      .   S
    C56    C58       1.40293      .   S
    C57    C63       1.40291      .   S
    C57    C59       1.40292      .   S
    H40    C100      1.08840  1_455   S
    H41    C101      1.08840      .   S
    H45    C109      1.08854      .   S
    H44    C108      1.08855      .   S
    H11    C58       1.08869      .   S
    H12    C59       1.08870      .   S
    C63    C61       1.39058      .   S
    C62    C60       1.39060      .   S
    C100   C106      1.39045      .   S
    C101   C107      1.39048      .   S
    C109   C111      1.39053      .   S
    C108   C110      1.39052      .   S
    C58    C52       1.39042      .   S
    C59    C53       1.39047      .   S
    C61    H14       0.73644      .   S
    C61    C51       1.40335      .   S
    C60    H13       1.08860      .   S
    C60    C50       1.40341      .   S
    C106   H42       1.08868  1_655   S
    C106   C104      1.40285      .   S
    C107   H43       1.08871      .   S
    C107   C105      1.40288      .   S
    C111   H47       1.08862      .   S
    C111   C105      1.40281      .   S
    C110   H46       1.08866      .   S
    C110   C104      1.40282      .   S
    C52    C50       1.40324      .   S
    C52    H9        1.08841      .   S
    C53    C51       1.40330      .   S
    C53    H10       1.08844      .   S
    C105   C103      1.49590      .   S
    C104   C102      1.49596      .   S
    C50    C48       1.49379      .   S
    C51    C49       1.49401      .   S
    C48    O116      1.27478      .   S
    C48    O120      1.27538      .   S
    C49    O117      1.27544      .   S
    C49    O121      1.27503      .   S
    C103   O145      1.27463      .   S
    C103   O149      1.27427      .   S
    C102   O144      1.27408      .   S
    C102   O148      1.27480      .   S
    O144   Al1       1.93273      .   S
    O116   Al6       1.92680      .   S
    O145   Al2       1.93129      .   S
    O117   Al5       1.92799  1_455   S
    O149   Al6       1.93117      .   S
    O148   Al5       1.93188      .   S
    O120   Al1       1.92805      .   S
    O121   Al2       1.92973      .   S
    H38    O142      0.96994      .   S
    H39    O143      0.96971      .   S
    O122   Al1       1.86154      .   S
    O122   H17       0.96996      .   S
    Al6    O128      1.93204      .   S
    Al6    O137      1.92800      .   S
    O143   Al2       1.86111      .   S
    Al1    O142      1.86150      .   S
    Al1    O140      1.92816      .   S
    Al1    O124      1.93282      .   S
    Al2    O123      1.86113      .   S
    Al2    O141      1.92978      .   S
    Al2    O125      1.93136      .   S
    O123   H18       0.96972      .   S
    Al5    O129      1.93110  1_655   S
    Al5    O136      1.92697      .   S
    O141   C81       1.27502      .   S
    O140   C80       1.27541      .   S
    O128   C70       1.27478      .   S
    O129   C71       1.27429      .   S
    O137   C81       1.27548      .   S
    O125   C71       1.27460      .   S
    O136   C80       1.27475      .   S
    O124   C70       1.27414      .   S
    C70    C72       1.49596      .   S
    C71    C73       1.49590      .   S
    C81    C83       1.49400      .   S
    C80    C82       1.49381      .   S
    H30    C85       1.08845      .   S
    H29    C84       1.08839      .   S
    C83    C85       1.40329      .   S
    C83    C93       1.40335      .   S
    C82    C84       1.40324      .   S
    C82    C92       1.40341      .   S
    C72    C78       1.40283      .   S
    C72    C74       1.40284      .   S
    C73    C79       1.40282      .   S
    C73    C75       1.40288      .   S
    H25    C78       1.08865      .   S
    H26    C79       1.08863      .   S
    H22    C75       0.74530      .   S
    H21    C74       1.08868      .   S
    H34    C92       1.08860  1_455   S
    H35    C93       1.08856      .   S
    C85    C91       1.39049      .   S
    C84    C90       1.39041      .   S
    C78    C76       1.39051      .   S
    C79    C77       1.39052      .   S
    C75    C69       1.39046      .   S
    C74    C68       1.39046      .   S
    C92    C94       1.39061      .   S
    C93    C95       1.39058      .   S
    C91    H33       1.08870      .   S
    C91    C89       1.40292      .   S
    C90    H31       1.08868      .   S
    C90    C88       1.40291      .   S
    C76    H23       1.08854      .   S
    C76    C66       1.40331      .   S
    C77    H24       1.08855      .   S
    C77    C67       1.40333      .   S
    C69    H20       0.72621      .   S
    C69    C67       1.40320      .   S
    C68    H19       1.08841      .   S
    C68    C66       1.40320      .   S
    C94    C88       1.40290      .   S
    C94    H36       1.08870  1_655   S
    C95    C89       1.40292      .   S
    C95    H37       1.08868      .   S
    C88    C86       1.49605      .   S
    C89    C87       1.49596      .   S
    C66    C64       1.49378      .   S
    C67    C65       1.49390      .   S
    C64    O130      1.27495      .   S
    C64    O126      1.27547      .   S
    C87    O139      1.27439      .   S
    C87    O135      1.27433      .   S
    C86    O138      1.27431      .   S
    C86    O134      1.27444      .   S
    C65    O131      1.27532      .   S
    C65    O127      1.27524      .   S
    O139   Al4       1.93066  1_545   S
    O130   Al0       1.92846  1_565   S
    O135   Al0       1.93218      .   S
    O127   Al4       1.92805      .   S
    O112   Al0       1.86156      .   S
    O112   Al3       1.86193  1_556   S
    O113   Al4       1.86177  1_545   S
    O122   Al6       1.86160      .   S
    O123   Al5       1.86132  1_455   S
    O132   Al3       1.86196  1_565   S
    O133   Al4       1.86158  1_554   S
    O142   Al5       1.86156      .   S
    O143   Al6       1.86140      .   S
