# CIF file generated by openbabel 2.4.90, see http://openbabel.sf.net
data_I
_chemical_name_common ''
_cell_length_a 13.417
_cell_length_b 13.831
_cell_length_c 16.197
_cell_angle_alpha 90.001
_cell_angle_beta 90.054
_cell_angle_gamma 90.106
_space_group_name_H-M_alt 'P 1'
_space_group_name_Hall 'P 1'
loop_
    _symmetry_equiv_pos_as_xyz
    x,y,z
loop_
    _atom_site_label
    _atom_site_type_symbol
    _atom_site_fract_x
    _atom_site_fract_y
    _atom_site_fract_z
    _atom_site_occupancy
    Al0     Al   0.50001   0.00000   0.99998   1.000
    Al1     Al   0.75000   0.50002   0.50000   1.000
    Al2     Al   0.25000   0.50001   0.50001   1.000
    Al3     Al   0.75000   0.00001   0.00001   1.000
    Al4     Al   0.24999   0.99999   0.99998   1.000
    Al5     Al   0.99997   0.50001   0.50007   1.000
    Al6     Al   0.50004   0.50002   0.49994   1.000
    H7      H    0.62538   0.12615   0.01557   1.000
    H8      H    0.12538   0.12641   0.01461   1.000
    H9      H    0.62482   0.37426   0.51677   1.000
    H10     H    0.12477   0.37299   0.51197   1.000
    H11     H    0.87461   0.87406   0.98385   1.000
    H12     H    0.37463   0.87338   0.98635   1.000
    Al13    Al   0.99999   0.00000   0.00002   1.000
    H14     H    0.87519   0.62590   0.48364   1.000
    H15     H    0.37523   0.62702   0.48796   1.000
    C16     C    0.62458   0.61616   0.38738   1.000
    C17     C    0.12425   0.61624   0.38745   1.000
    C18     C    0.62560   0.88392   0.11256   1.000
    C19     C    0.12574   0.88394   0.11257   1.000
    C20     C    0.62405   0.88380   0.88743   1.000
    C21     C    0.12388   0.88375   0.88745   1.000
    C22     C    0.62604   0.61619   0.61252   1.000
    C23     C    0.12622   0.61609   0.61256   1.000
    C24     C    0.87540   0.38387   0.61261   1.000
    C25     C    0.37577   0.38379   0.61256   1.000
    C26     C    0.87436   0.11612   0.88745   1.000
    C27     C    0.37430   0.11607   0.88743   1.000
    C28     C    0.87601   0.11623   0.11259   1.000
    C29     C    0.37607   0.11631   0.11254   1.000
    C30     C    0.87398   0.38386   0.38748   1.000
    C31     C    0.37377   0.38395   0.38745   1.000
    O32     O    0.62510   0.05845   0.99995   1.000
    O33     O    0.12509   0.05841   0.99997   1.000
    O34     O    0.54113   0.90797   0.08301   1.000
    O35     O    0.04130   0.90806   0.08304   1.000
    O36     O    0.53990   0.58764   0.41352   1.000
    O37     O    0.03948   0.58784   0.41360   1.000
    O38     O    0.71047   0.91207   0.08664   1.000
    O39     O    0.21064   0.91203   0.08662   1.000
    O40     O    0.70893   0.59172   0.41707   1.000
    O41     O    0.20858   0.59178   0.41711   1.000
    O42     O    0.62491   0.44157   0.49994   1.000
    O43     O    0.12488   0.44170   0.50006   1.000
    O44     O    0.71087   0.58838   0.58649   1.000
    O45     O    0.21108   0.58836   0.58646   1.000
    O46     O    0.70849   0.90853   0.91697   1.000
    O47     O    0.20830   0.90851   0.91698   1.000
    O48     O    0.54148   0.59183   0.58313   1.000
    O49     O    0.04170   0.59166   0.58320   1.000
    O50     O    0.53939   0.91195   0.91370   1.000
    O51     O    0.03917   0.91187   0.91370   1.000
    O52     O    0.87491   0.94157   0.00000   1.000
    O53     O    0.37491   0.94164   0.00000   1.000
    O54     O    0.95882   0.09206   0.91698   1.000
    O55     O    0.45874   0.09198   0.91698   1.000
    O56     O    0.96009   0.41238   0.58648   1.000
    O57     O    0.46055   0.41219   0.58640   1.000
    O58     O    0.78948   0.08799   0.91338   1.000
    O59     O    0.28941   0.08796   0.91336   1.000
    O60     O    0.79106   0.40831   0.58292   1.000
    O61     O    0.29144   0.40826   0.58291   1.000
    O62     O    0.87509   0.55846   0.50007   1.000
    O63     O    0.37512   0.55834   0.49996   1.000
    O64     O    0.78916   0.41168   0.41350   1.000
    O65     O    0.28891   0.41167   0.41356   1.000
    O66     O    0.79158   0.09149   0.08305   1.000
    O67     O    0.29165   0.09155   0.08301   1.000
    O68     O    0.95854   0.40821   0.41689   1.000
    O69     O    0.45829   0.40838   0.41680   1.000
    O70     O    0.96068   0.08808   0.08631   1.000
    O71     O    0.46077   0.08819   0.08629   1.000
    Og72    Og   0.62469   0.63913   0.36371   1.000
    Og73    Og   0.12440   0.63919   0.36376   1.000
    Og74    Og   0.62548   0.86096   0.13629   1.000
    Og75    Og   0.12559   0.86097   0.13630   1.000
    Og76    Og   0.62420   0.86085   0.86374   1.000
    Og77    Og   0.12406   0.86079   0.86377   1.000
    Og78    Og   0.62589   0.63914   0.63626   1.000
    Og79    Og   0.12605   0.63904   0.63630   1.000
    Og80    Og   0.87529   0.36090   0.63628   1.000
    Og81    Og   0.37563   0.36084   0.63625   1.000
    Og82    Og   0.87449   0.13908   0.86371   1.000
    Og83    Og   0.37446   0.13904   0.86370   1.000
    Og84    Og   0.87586   0.13918   0.13627   1.000
    Og85    Og   0.37590   0.13926   0.13623   1.000
    Og86    Og   0.87414   0.36090   0.36374   1.000
    Og87    Og   0.37394   0.36100   0.36371   1.000
loop_
    _geom_bond_atom_site_label_1
    _geom_bond_atom_site_label_2
    _geom_bond_distance
    _geom_bond_site_symmetry_2
    _ccdc_geom_bond_type
    O52    Al13      1.86135  1_565   S
    O52    H11       0.96960  1_554   S
    O53    H12       0.96972  1_554   S
    O53    Al0       1.86104  1_564   S
    Al3    O66       1.92801      .   S
    Al3    O38       1.93092  1_545   S
    Al3    O58       1.93120  1_554   S
    Al3    O46       1.92766  1_544   S
    Al13   O35       1.93237  1_645   S
    Al13   O70       1.92864      .   S
    Al13   O51       1.92877  1_644   S
    Al13   O54       1.93297  1_554   S
    Al13   O33       1.86144  1_654   S
    H8     O33       0.96983  1_554   S
    H7     O32       0.96990  1_554   S
    O67    C29       1.27534      .   S
    O67    Al4       1.92877  1_544   S
    O34    C18       1.27453      .   S
    O34    Al0       1.93260  1_564   S
    O35    C19       1.27428      .   S
    O66    C28       1.27539      .   S
    O71    C29       1.27523      .   S
    O71    Al0       1.92948  1_554   S
    O70    C28       1.27507      .   S
    O39    C19       1.27452      .   S
    O39    Al4       1.93065  1_554   S
    O38    C18       1.27420      .   S
    C16    O36       1.27478      .   S
    C16    O40       1.27538      .   S
    C17    O37       1.27544      .   S
    C17    O41       1.27503      .   S
    C31    O65       1.27463      .   S
    C31    O69       1.27427      .   S
    C30    O64       1.27408      .   S
    C30    O68       1.27480      .   S
    O64    Al1       1.93273      .   S
    O36    Al6       1.92680      .   S
    O65    Al2       1.93129      .   S
    O37    Al5       1.92799  1_455   S
    O69    Al6       1.93117      .   S
    O68    Al5       1.93188      .   S
    O40    Al1       1.92805      .   S
    O41    Al2       1.92973      .   S
    H14    O62       0.96994      .   S
    H15    O63       0.96971      .   S
    O42    Al1       1.86154      .   S
    O42    H9        0.96996      .   S
    Al6    O48       1.93204      .   S
    Al6    O57       1.92800      .   S
    O63    Al2       1.86111      .   S
    Al1    O62       1.86150      .   S
    Al1    O60       1.92816      .   S
    Al1    O44       1.93282      .   S
    Al2    O43       1.86113      .   S
    Al2    O61       1.92978      .   S
    Al2    O45       1.93136      .   S
    O43    H10       0.96972      .   S
    Al5    O49       1.93110  1_655   S
    Al5    O56       1.92697      .   S
    O61    C25       1.27502      .   S
    O60    C24       1.27541      .   S
    O48    C22       1.27478      .   S
    O49    C23       1.27429      .   S
    O57    C25       1.27548      .   S
    O45    C23       1.27460      .   S
    O56    C24       1.27475      .   S
    O44    C22       1.27414      .   S
    C20    O50       1.27495      .   S
    C20    O46       1.27547      .   S
    C27    O59       1.27439      .   S
    C27    O55       1.27433      .   S
    C26    O58       1.27431      .   S
    C26    O54       1.27444      .   S
    C21    O51       1.27532      .   S
    C21    O47       1.27524      .   S
    O59    Al4       1.93066  1_545   S
    O50    Al0       1.92846  1_565   S
    O55    Al0       1.93218      .   S
    O47    Al4       1.92805      .   S
    O32    Al0       1.86156      .   S
    O32    Al3       1.86193  1_556   S
    O33    Al4       1.86177  1_545   S
    O42    Al6       1.86160      .   S
    O43    Al5       1.86132  1_455   S
    O52    Al3       1.86196  1_565   S
    O53    Al4       1.86158  1_554   S
    O62    Al5       1.86156      .   S
    O63    Al6       1.86140      .   S
    C16    Og72      0.49793      .   S
    C17    Og73      0.49800      .   S
    C18    Og74      0.49867      .   S
    C19    Og75      0.49866      .   S
    C20    Og76      0.49793      .   S
    C21    Og77      0.49797      .   S
    C22    Og78      0.49865      .   S
    C23    Og79      0.49863      .   S
    C24    Og80      0.49794      .   S
    C25    Og81      0.49800      .   S
    C26    Og82      0.49868      .   S
    C27    Og83      0.49865      .   S
    C28    Og84      0.49792      .   S
    C29    Og85      0.49798      .   S
    C30    Og86      0.49865      .   S
    C31    Og87      0.49863      .   S
