# CIF file generated by openbabel 2.4.90, see http://openbabel.sf.net
data_I
_chemical_name_common ''
_cell_length_a 13.417
_cell_length_b 13.831
_cell_length_c 16.197
_cell_angle_alpha 90.001
_cell_angle_beta 90.054
_cell_angle_gamma 90.106
_space_group_name_H-M_alt 'P 1'
_space_group_name_Hall 'P 1'
loop_
    _symmetry_equiv_pos_as_xyz
    x,y,z
loop_
    _atom_site_label
    _atom_site_type_symbol
    _atom_site_fract_x
    _atom_site_fract_y
    _atom_site_fract_z
    _atom_site_occupancy
    Al0     Al   0.50001   0.00000   0.99998   1.000
    Al1     Al   0.75000   0.50002   0.50000   1.000
    Al2     Al   0.25000   0.50001   0.50001   1.000
    Al3     Al   0.75000   0.00001   0.00001   1.000
    Al4     Al   0.24999   0.99999   0.99998   1.000
    Al5     Al   0.99997   0.50001   0.50007   1.000
    Al6     Al   0.50004   0.50002   0.49994   1.000
    Al7     Al   0.99999   0.00000   0.00002   1.000
