# CIF file generated by openbabel 2.4.90, see http://openbabel.sf.net
data_I
_chemical_name_common ''
_cell_length_a 13.417
_cell_length_b 13.831
_cell_length_c 16.197
_cell_angle_alpha 90.001
_cell_angle_beta 90.054
_cell_angle_gamma 90.106
_space_group_name_H-M_alt 'P 1'
_space_group_name_Hall 'P 1'
loop_
    _symmetry_equiv_pos_as_xyz
    x,y,z
loop_
    _atom_site_label
    _atom_site_type_symbol
    _atom_site_fract_x
    _atom_site_fract_y
    _atom_site_fract_z
    _atom_site_occupancy
    H0      H    0.62538   0.12615   0.01557   1.000
    H1      H    0.12538   0.12641   0.01461   1.000
    H2      H    0.62482   0.37426   0.51677   1.000
    H3      H    0.12477   0.37299   0.51197   1.000
    H4      H    0.87461   0.87406   0.98385   1.000
    H5      H    0.37463   0.87338   0.98635   1.000
    H6      H    0.87519   0.62590   0.48364   1.000
    H7      H    0.37523   0.62702   0.48796   1.000
    C8      C    0.62458   0.61616   0.38738   1.000
    C9      C    0.12425   0.61624   0.38745   1.000
    C10     C    0.62560   0.88392   0.11256   1.000
    C11     C    0.12574   0.88394   0.11257   1.000
    C12     C    0.62405   0.88380   0.88743   1.000
    C13     C    0.12388   0.88375   0.88745   1.000
    C14     C    0.62604   0.61619   0.61252   1.000
    C15     C    0.12622   0.61609   0.61256   1.000
    C16     C    0.87540   0.38387   0.61261   1.000
    C17     C    0.37577   0.38379   0.61256   1.000
    C18     C    0.87436   0.11612   0.88745   1.000
    C19     C    0.37430   0.11607   0.88743   1.000
    C20     C    0.87601   0.11623   0.11259   1.000
    C21     C    0.37607   0.11631   0.11254   1.000
    C22     C    0.87398   0.38386   0.38748   1.000
    C23     C    0.37377   0.38395   0.38745   1.000
    O24     O    0.62510   0.05845   0.99995   1.000
    O25     O    0.12509   0.05841   0.99997   1.000
    O26     O    0.54113   0.90797   0.08301   1.000
    O27     O    0.04130   0.90806   0.08304   1.000
    O28     O    0.53990   0.58764   0.41352   1.000
    O29     O    0.03948   0.58784   0.41360   1.000
    O30     O    0.71047   0.91207   0.08664   1.000
    O31     O    0.21064   0.91203   0.08662   1.000
    O32     O    0.70893   0.59172   0.41707   1.000
    O33     O    0.20858   0.59178   0.41711   1.000
    O34     O    0.62491   0.44157   0.49994   1.000
    O35     O    0.12488   0.44170   0.50006   1.000
    O36     O    0.71087   0.58838   0.58649   1.000
    O37     O    0.21108   0.58836   0.58646   1.000
    O38     O    0.70849   0.90853   0.91697   1.000
    O39     O    0.20830   0.90851   0.91698   1.000
    O40     O    0.54148   0.59183   0.58313   1.000
    O41     O    0.04170   0.59166   0.58320   1.000
    O42     O    0.53939   0.91195   0.91370   1.000
    O43     O    0.03917   0.91187   0.91370   1.000
    O44     O    0.87491   0.94157   0.00000   1.000
    O45     O    0.37491   0.94164   0.00000   1.000
    O46     O    0.95882   0.09206   0.91698   1.000
    O47     O    0.45874   0.09198   0.91698   1.000
    O48     O    0.96009   0.41238   0.58648   1.000
    O49     O    0.46055   0.41219   0.58640   1.000
    O50     O    0.78948   0.08799   0.91338   1.000
    O51     O    0.28941   0.08796   0.91336   1.000
    O52     O    0.79106   0.40831   0.58292   1.000
    O53     O    0.29144   0.40826   0.58291   1.000
    O54     O    0.87509   0.55846   0.50007   1.000
    O55     O    0.37512   0.55834   0.49996   1.000
    O56     O    0.78916   0.41168   0.41350   1.000
    O57     O    0.28891   0.41167   0.41356   1.000
    O58     O    0.79158   0.09149   0.08305   1.000
    O59     O    0.29165   0.09155   0.08301   1.000
    O60     O    0.95854   0.40821   0.41689   1.000
    O61     O    0.45829   0.40838   0.41680   1.000
    O62     O    0.96068   0.08808   0.08631   1.000
    O63     O    0.46077   0.08819   0.08629   1.000
loop_
    _geom_bond_atom_site_label_1
    _geom_bond_atom_site_label_2
    _geom_bond_distance
    _geom_bond_site_symmetry_2
    _ccdc_geom_bond_type
    O44    H4        0.96960  1_554   S
    O45    H5        0.96972  1_554   S
    H1     O25       0.96983  1_554   S
    H0     O24       0.96990  1_554   S
    O59    C21       1.27534      .   S
    O26    C10       1.27453      .   S
    O27    C11       1.27428      .   S
    O58    C20       1.27539      .   S
    O63    C21       1.27523      .   S
    O62    C20       1.27507      .   S
    O31    C11       1.27452      .   S
    O30    C10       1.27420      .   S
    C8     O28       1.27478      .   S
    C8     O32       1.27538      .   S
    C9     O29       1.27544      .   S
    C9     O33       1.27503      .   S
    C23    O57       1.27463      .   S
    C23    O61       1.27427      .   S
    C22    O56       1.27408      .   S
    C22    O60       1.27480      .   S
    H6     O54       0.96994      .   S
    H7     O55       0.96971      .   S
    O34    H2        0.96996      .   S
    O35    H3        0.96972      .   S
    O53    C17       1.27502      .   S
    O52    C16       1.27541      .   S
    O40    C14       1.27478      .   S
    O41    C15       1.27429      .   S
    O49    C17       1.27548      .   S
    O37    C15       1.27460      .   S
    O48    C16       1.27475      .   S
    O36    C14       1.27414      .   S
    C12    O42       1.27495      .   S
    C12    O38       1.27547      .   S
    C19    O51       1.27439      .   S
    C19    O47       1.27433      .   S
    C18    O50       1.27431      .   S
    C18    O46       1.27444      .   S
    C13    O43       1.27532      .   S
    C13    O39       1.27524      .   S
