# CIF file generated by openbabel 2.4.90, see http://openbabel.sf.net
data_I
_chemical_name_common ''
_cell_length_a 13.417
_cell_length_b 13.831
_cell_length_c 16.197
_cell_angle_alpha 90.001
_cell_angle_beta 90.054
_cell_angle_gamma 90.106
_space_group_name_H-M_alt 'P 1'
_space_group_name_Hall 'P 1'
loop_
    _symmetry_equiv_pos_as_xyz
    x,y,z
loop_
    _atom_site_label
    _atom_site_type_symbol
    _atom_site_fract_x
    _atom_site_fract_y
    _atom_site_fract_z
    _atom_site_occupancy
    C0      C    0.62458   0.61616   0.38738   1.000
    C1      C    0.12425   0.61624   0.38745   1.000
    C2      C    0.62560   0.88392   0.11256   1.000
    C3      C    0.12574   0.88394   0.11257   1.000
    C4      C    0.62405   0.88380   0.88743   1.000
    C5      C    0.12388   0.88375   0.88745   1.000
    C6      C    0.62604   0.61619   0.61252   1.000
    C7      C    0.12622   0.61609   0.61256   1.000
    C8      C    0.87540   0.38387   0.61261   1.000
    C9      C    0.37577   0.38379   0.61256   1.000
    C10     C    0.87436   0.11612   0.88745   1.000
    C11     C    0.37430   0.11607   0.88743   1.000
    C12     C    0.87601   0.11623   0.11259   1.000
    C13     C    0.37607   0.11631   0.11254   1.000
    C14     C    0.87398   0.38386   0.38748   1.000
    C15     C    0.37377   0.38395   0.38745   1.000
