# CIF file generated by openbabel 2.4.90, see http://openbabel.sf.net
data_I
_chemical_name_common ''
_cell_length_a 13.417
_cell_length_b 13.831
_cell_length_c 16.197
_cell_angle_alpha 90.001
_cell_angle_beta 90.054
_cell_angle_gamma 90.106
_space_group_name_H-M_alt 'P 1'
_space_group_name_Hall 'P 1'
loop_
    _symmetry_equiv_pos_as_xyz
    x,y,z
loop_
    _atom_site_label
    _atom_site_type_symbol
    _atom_site_fract_x
    _atom_site_fract_y
    _atom_site_fract_z
    _atom_site_occupancy
    Zr0     Zr   0.99999   0.00000   0.00002   1.000
    Zr1     Zr   0.50001   0.00000   0.99998   1.000
    Zr2     Zr   0.75000   0.50002   0.50000   1.000
    Zr3     Zr   0.25000   0.50001   0.50001   1.000
    Zr4     Zr   0.75000   0.00001   0.00001   1.000
    Zr5     Zr   0.24999   0.99999   0.99998   1.000
    Zr6     Zr   0.99997   0.50001   0.50007   1.000
    Zr7     Zr   0.50004   0.50002   0.49994   1.000
    N8      N    0.37493   0.25007   0.25004   1.000
    N9      N    0.37504   0.25003   0.75007   1.000
    N10     N    0.87489   0.25005   0.75007   1.000
    N11     N    0.62502   0.75008   0.74991   1.000
    N12     N    0.13191   0.74997   0.74996   1.000
    N13     N    0.62508   0.74998   0.24993   1.000
    N14     N    0.87502   0.24995   0.25010   1.000
    N15     N    0.13181   0.75000   0.24993   1.000
    C16     C    0.12590   0.90134   0.09408   1.000
    O17     O    0.12728   0.85054   0.14656   1.000
    O18     O    0.17811   0.92868   0.06869   1.000
    O19     O    0.07327   0.92768   0.06780   1.000
    C20     C    0.12379   0.90138   0.90605   1.000
    O21     O    0.12590   0.85051   0.85350   1.000
    O22     O    0.17647   0.92781   0.93226   1.000
    O23     O    0.07168   0.92866   0.93145   1.000
    C24     C    0.37477   0.90751   0.99318   1.000
    O25     O    0.40612   0.93916   0.99658   1.000
    O26     O    0.34361   0.93916   0.99658   1.000
    C27     C    0.62524   0.09230   0.00776   1.000
    O28     O    0.59390   0.06076   0.00387   1.000
    O29     O    0.65639   0.06076   0.00387   1.000
    C30     C    0.87476   0.90782   0.99192   1.000
    O31     O    0.90611   0.93930   0.99597   1.000
    O32     O    0.84361   0.93930   0.99596   1.000
    C33     C    0.87609   0.09860   0.09398   1.000
    O34     O    0.92821   0.07132   0.06857   1.000
    O35     O    0.82344   0.07217   0.06776   1.000
    O36     O    0.87574   0.14945   0.14655   1.000
    C37     C    0.62397   0.90143   0.90603   1.000
    O38     O    0.62431   0.85058   0.85347   1.000
    O39     O    0.57183   0.92870   0.93144   1.000
    O40     O    0.67661   0.92785   0.93226   1.000
    C41     C    0.87422   0.09872   0.90594   1.000
    O42     O    0.87447   0.14951   0.85345   1.000
    O43     O    0.92682   0.07238   0.93222   1.000
    O44     O    0.82198   0.07136   0.93132   1.000
    C45     C    0.37616   0.09868   0.09395   1.000
    O46     O    0.37577   0.14954   0.14650   1.000
    O47     O    0.32349   0.07223   0.06772   1.000
    O48     O    0.42828   0.07139   0.06854   1.000
    C49     C    0.12524   0.09241   0.00729   1.000
    O50     O    0.09389   0.06081   0.00364   1.000
    O51     O    0.15639   0.06081   0.00364   1.000
    C52     C    0.62573   0.90132   0.09407   1.000
    O53     O    0.67798   0.92868   0.06870   1.000
    O54     O    0.57315   0.92765   0.06778   1.000
    O55     O    0.62549   0.85052   0.14656   1.000
    C56     C    0.37415   0.09867   0.90592   1.000
    O57     O    0.42676   0.07233   0.93220   1.000
    O58     O    0.37447   0.14947   0.85344   1.000
    O59     O    0.32193   0.07132   0.93130   1.000
    C60     C    0.12410   0.59862   0.40605   1.000
    O61     O    0.12612   0.64948   0.35349   1.000
    O62     O    0.17670   0.57226   0.43231   1.000
    O63     O    0.07191   0.57127   0.43144   1.000
    C64     C    0.12483   0.40734   0.50601   1.000
    O65     O    0.15613   0.43910   0.50302   1.000
    O66     O    0.09363   0.43910   0.50304   1.000
    C67     C    0.62447   0.59851   0.40599   1.000
    O68     O    0.67697   0.57219   0.43226   1.000
    O69     O    0.62469   0.64940   0.35345   1.000
    O70     O    0.57222   0.57117   0.43136   1.000
    C71     C    0.62487   0.40792   0.50835   1.000
    O72     O    0.65616   0.43935   0.50416   1.000
    O73     O    0.59367   0.43936   0.50414   1.000
    C74     C    0.62613   0.59880   0.59405   1.000
    O75     O    0.62577   0.64957   0.64653   1.000
    O76     O    0.57344   0.57236   0.56779   1.000
    O77     O    0.67828   0.57150   0.56865   1.000
    C78     C    0.87552   0.40152   0.59400   1.000
    O79     O    0.87529   0.35062   0.64655   1.000
    O80     O    0.82302   0.42784   0.56773   1.000
    O81     O    0.92777   0.42886   0.56864   1.000
    C82     C    0.12634   0.59870   0.59407   1.000
    O83     O    0.12764   0.64947   0.64657   1.000
    O84     O    0.07359   0.57227   0.56785   1.000
    O85     O    0.17844   0.57144   0.56865   1.000
    C86     C    0.37592   0.40141   0.59396   1.000
    O87     O    0.42811   0.42876   0.56857   1.000
    O88     O    0.37561   0.35055   0.64652   1.000
    O89     O    0.32332   0.42777   0.56771   1.000
    C90     C    0.87389   0.40125   0.40596   1.000
    O91     O    0.82174   0.42855   0.43135   1.000
    O92     O    0.87425   0.35047   0.35347   1.000
    O93     O    0.92657   0.42768   0.43222   1.000
    C94     C    0.37365   0.40133   0.40594   1.000
    O95     O    0.32156   0.42859   0.43136   1.000
    O96     O    0.37406   0.35056   0.35344   1.000
    O97     O    0.42641   0.42777   0.43215   1.000
    C98     C    0.37517   0.59268   0.49396   1.000
    O99     O    0.34387   0.56093   0.49697   1.000
    O100    O    0.40638   0.56093   0.49695   1.000
    C101    C    0.87514   0.59218   0.49185   1.000
    O102    O    0.84385   0.56071   0.49594   1.000
    O103    O    0.90634   0.56071   0.49596   1.000
loop_
    _geom_bond_atom_site_label_1
    _geom_bond_atom_site_label_2
    _geom_bond_distance
    _geom_bond_site_symmetry_2
    _ccdc_geom_bond_type
    C16    O17       1.10305      .   S
    N15    O17       2.17739      .   S
    C16    O18       0.89572      .   S
    Zr5    O18       1.77207  1_556   S
    C16    O19       0.90154      .   S
    Zr0    O19       1.78163  1_645   S
    C20    O21       1.10470      .   S
    N12    O21       2.18009      .   S
    C20    O22       0.90116      .   S
    Zr5    O22       1.77968      .   S
    C20    O23       0.89548      .   S
    Zr0    O23       1.77135  1_644   S
    C24    O25       0.60900      .   S
    Zr1    O25       1.51456  1_545   S
    C24    O26       0.60846      .   S
    Zr5    O26       1.51417      .   S
    C27    O28       0.60858      .   S
    Zr1    O28       1.51428  1_556   S
    C27    O29       0.60800      .   S
    Zr4    O29       1.51375      .   S
    C30    O31       0.60831      .   S
    Zr0    O31       1.51388  1_544   S
    C30    O32       0.60774      .   S
    Zr4    O32       1.51348  1_544   S
    C33    O34       0.89573      .   S
    Zr0    O34       1.77173      .   S
    C33    O35       0.90083      .   S
    Zr4    O35       1.77919      .   S
    C33    O36       1.10430      .   S
    N14    O36       2.17843      .   S
    C37    O38       1.10429      .   S
    N11    O38       2.17842      .   S
    C37    O39       0.89581      .   S
    Zr1    O39       1.77179  1_545   S
    C37    O40       0.90067      .   S
    Zr4    O40       1.77878  1_544   S
    C41    O42       1.10287      .   S
    N10    O42       2.17649      .   S
    C41    O43       0.90128      .   S
    Zr0    O43       1.78145  1_554   S
    C41    O44       0.89613      .   S
    Zr4    O44       1.77293  1_554   S
    C45    O46       1.10430      .   S
    N8     O46       2.17851      .   S
    C45    O47       0.90122      .   S
    Zr5    O47       1.78005  1_566   S
    C45    O48       0.89568      .   S
    Zr1    O48       1.77194  1_556   S
    C49    O50       0.60886      .   S
    Zr0    O50       1.51458  1_655   S
    C49    O51       0.60826      .   S
    Zr5    O51       1.51400  1_566   S
    C52    O53       0.89616      .   S
    Zr4    O53       1.77289  1_545   S
    C52    O54       0.90114      .   S
    Zr1    O54       1.78109  1_546   S
    C52    O55       1.10289      .   S
    N13    O55       2.17652      .   S
    C56    O57       0.90140      .   S
    Zr1    O57       1.78135      .   S
    C56    O58       1.10291      .   S
    N9     O58       2.17655      .   S
    C56    O59       0.89583      .   S
    Zr5    O59       1.77227  1_565   S
    C60    O61       1.10469      .   S
    N15    O61       2.17990      .   S
    C60    O62       0.90116      .   S
    Zr3    O62       1.78041      .   S
    C60    O63       0.89560      .   S
    Zr6    O63       1.77122  1_655   S
    C64    O65       0.60916      .   S
    Zr3    O65       1.51479      .   S
    C64    O66       0.60920      .   S
    Zr6    O66       1.51493  1_655   S
    C67    O68       0.90004      .   S
    Zr2    O68       1.77810      .   S
    C67    O69       1.10447      .   S
    N13    O69       2.17864      .   S
    C67    O70       0.89599      .   S
    Zr7    O70       1.77152      .   S
    C71    O72       0.60776      .   S
    Zr2    O72       1.51328      .   S
    C71    O73       0.60788      .   S
    Zr7    O73       1.51346      .   S
    C74    O75       1.10271      .   S
    N11    O75       2.17627      .   S
    C74    O76       0.90150      .   S
    Zr7    O76       1.78130      .   S
    C74    O77       0.89609      .   S
    Zr2    O77       1.77348      .   S
    C78    O79       1.10447      .   S
    N10    O79       2.17865      .   S
    C78    O80       0.90005      .   S
    Zr2    O80       1.77815      .   S
    C78    O81       0.89605      .   S
    Zr6    O81       1.77167      .   S
    C82    O83       1.10286      .   S
    N12    O83       2.17697      .   S
    C82    O84       0.90189      .   S
    Zr6    O84       1.78160  1_655   S
    C82    O85       0.89546      .   S
    Zr3    O85       1.77191      .   S
    C86    O87       0.89559      .   S
    Zr7    O87       1.77120      .   S
    C86    O88       1.10438      .   S
    N9     O88       2.17863      .   S
    C86    O89       0.90119      .   S
    Zr3    O89       1.78048      .   S
    C90    O91       0.89609      .   S
    Zr2    O91       1.77346      .   S
    C90    O92       1.10271      .   S
    N14    O92       2.17627      .   S
    C90    O93       0.90146      .   S
    Zr6    O93       1.78117      .   S
    C94    O95       0.89543      .   S
    Zr3    O95       1.77184      .   S
    C94    O96       1.10278      .   S
    N8     O96       2.17637      .   S
    C94    O97       0.90192      .   S
    Zr7    O97       1.78168      .   S
    C98    O99       0.60913      .   S
    Zr3    O99       1.51475      .   S
    C98    O100      0.60920      .   S
    Zr7    O100      1.51497      .   S
    C101   O102      0.60789      .   S
    Zr2    O102      1.51342      .   S
    C101   O103      0.60800      .   S
    Zr6    O103      1.51358      .   S
