# CIF file generated by openbabel 2.4.90, see http://openbabel.sf.net
data_I
_chemical_name_common ''
_cell_length_a 13.417
_cell_length_b 13.831
_cell_length_c 16.197
_cell_angle_alpha 90.001
_cell_angle_beta 90.054
_cell_angle_gamma 90.106
_space_group_name_H-M_alt 'P 1'
_space_group_name_Hall 'P 1'
loop_
    _symmetry_equiv_pos_as_xyz
    x,y,z
loop_
    _atom_site_label
    _atom_site_type_symbol
    _atom_site_fract_x
    _atom_site_fract_y
    _atom_site_fract_z
    _atom_site_occupancy
    Zr0     Zr   0.99999   0.00000   0.00002   1.000
    Zr1     Zr   0.50001   0.00000   0.99998   1.000
    Zr2     Zr   0.75000   0.50002   0.50000   1.000
    Zr3     Zr   0.25000   0.50001   0.50001   1.000
    Zr4     Zr   0.75000   0.00001   0.00001   1.000
    Zr5     Zr   0.24999   0.99999   0.99998   1.000
    Zr6     Zr   0.99997   0.50001   0.50007   1.000
    Zr7     Zr   0.50004   0.50002   0.49994   1.000
    Zr8     Zr   0.62538   0.12615   0.01557   1.000
    Zr9     Zr   0.12538   0.12641   0.01461   1.000
    Zr10    Zr   0.62482   0.37426   0.51677   1.000
    Zr11    Zr   0.12477   0.37299   0.51197   1.000
    Zr12    Zr   0.87461   0.87406   0.98385   1.000
    Zr13    Zr   0.37463   0.87338   0.98635   1.000
    Zr14    Zr   0.87519   0.62590   0.48364   1.000
    Zr15    Zr   0.37523   0.62702   0.48796   1.000
    Zr16    Zr   0.62458   0.61616   0.38738   1.000
    Zr17    Zr   0.12425   0.61624   0.38745   1.000
    Zr18    Zr   0.62560   0.88392   0.11256   1.000
    Zr19    Zr   0.12574   0.88394   0.11257   1.000
    Zr20    Zr   0.62405   0.88380   0.88743   1.000
    Zr21    Zr   0.12388   0.88375   0.88745   1.000
    Zr22    Zr   0.62604   0.61619   0.61252   1.000
    Zr23    Zr   0.12622   0.61609   0.61256   1.000
    Zr24    Zr   0.87540   0.38387   0.61261   1.000
    Zr25    Zr   0.37577   0.38379   0.61256   1.000
    Zr26    Zr   0.87436   0.11612   0.88745   1.000
    Zr27    Zr   0.37430   0.11607   0.88743   1.000
    Zr28    Zr   0.87601   0.11623   0.11259   1.000
    Zr29    Zr   0.37607   0.11631   0.11254   1.000
    Zr30    Zr   0.87398   0.38386   0.38748   1.000
    Zr31    Zr   0.37377   0.38395   0.38745   1.000
    Zr32    Zr   0.62510   0.05845   0.99995   1.000
    Zr33    Zr   0.12509   0.05841   0.99997   1.000
    Zr34    Zr   0.54113   0.90797   0.08301   1.000
    Zr35    Zr   0.04130   0.90806   0.08304   1.000
    Zr36    Zr   0.53990   0.58764   0.41352   1.000
    Zr37    Zr   0.03948   0.58784   0.41360   1.000
    Zr38    Zr   0.71047   0.91207   0.08664   1.000
    Zr39    Zr   0.21064   0.91203   0.08662   1.000
    Zr40    Zr   0.70893   0.59172   0.41707   1.000
    Zr41    Zr   0.20858   0.59178   0.41711   1.000
    Zr42    Zr   0.62491   0.44157   0.49994   1.000
    Zr43    Zr   0.12488   0.44170   0.50006   1.000
    Zr44    Zr   0.71087   0.58838   0.58649   1.000
    Zr45    Zr   0.21108   0.58836   0.58646   1.000
    Zr46    Zr   0.70849   0.90853   0.91697   1.000
    Zr47    Zr   0.20830   0.90851   0.91698   1.000
    Zr48    Zr   0.54148   0.59183   0.58313   1.000
    Zr49    Zr   0.04170   0.59166   0.58320   1.000
    Zr50    Zr   0.53939   0.91195   0.91370   1.000
    Zr51    Zr   0.03917   0.91187   0.91370   1.000
    Zr52    Zr   0.87491   0.94157   0.00000   1.000
    Zr53    Zr   0.37491   0.94164   0.00000   1.000
    Zr54    Zr   0.95882   0.09206   0.91698   1.000
    Zr55    Zr   0.45874   0.09198   0.91698   1.000
    Zr56    Zr   0.96009   0.41238   0.58648   1.000
    Zr57    Zr   0.46055   0.41219   0.58640   1.000
    Zr58    Zr   0.78948   0.08799   0.91338   1.000
    Zr59    Zr   0.28941   0.08796   0.91336   1.000
    Zr60    Zr   0.79106   0.40831   0.58292   1.000
    Zr61    Zr   0.29144   0.40826   0.58291   1.000
    Zr62    Zr   0.87509   0.55846   0.50007   1.000
    Zr63    Zr   0.37512   0.55834   0.49996   1.000
    Zr64    Zr   0.78916   0.41168   0.41350   1.000
    Zr65    Zr   0.28891   0.41167   0.41356   1.000
    Zr66    Zr   0.79158   0.09149   0.08305   1.000
    Zr67    Zr   0.29165   0.09155   0.08301   1.000
    Zr68    Zr   0.95854   0.40821   0.41689   1.000
    Zr69    Zr   0.45829   0.40838   0.41680   1.000
    Zr70    Zr   0.96068   0.08808   0.08631   1.000
    Zr71    Zr   0.46077   0.08819   0.08629   1.000
    O72     O    0.93745   0.97078   0.00001   1.000
    O73     O    0.87476   0.90782   0.99192   1.000
    O74     O    0.37477   0.90751   0.99318   1.000
    O75     O    0.43746   0.97082   0.99999   1.000
    O76     O    0.77079   0.04575   0.04153   1.000
    O77     O    0.73023   0.95604   0.04333   1.000
    O78     O    0.76974   0.04400   0.95670   1.000
    O79     O    0.72924   0.95427   0.95849   1.000
    O80     O    0.02065   0.95403   0.04153   1.000
    O81     O    0.98033   0.04404   0.04316   1.000
    O82     O    0.01958   0.95594   0.95686   1.000
    O83     O    0.97941   0.04603   0.95850   1.000
    O84     O    0.06254   0.02921   1.00000   1.000
    O85     O    0.12524   0.09241   0.00729   1.000
    O86     O    0.62524   0.09230   0.00776   1.000
    O87     O    0.33386   0.10393   0.09778   1.000
    O88     O    0.27082   0.04577   0.04150   1.000
    O89     O    0.58337   0.89594   0.09779   1.000
    O90     O    0.52057   0.95398   0.04150   1.000
    O91     O    0.08352   0.89600   0.09780   1.000
    O92     O    0.83379   0.10386   0.09782   1.000
    O93     O    0.41842   0.10225   0.09942   1.000
    O94     O    0.48039   0.04409   0.04314   1.000
    O95     O    0.91834   0.10215   0.09945   1.000
    O96     O    0.16819   0.89798   0.09960   1.000
    O97     O    0.23032   0.95601   0.04330   1.000
    O98     O    0.66803   0.89800   0.09960   1.000
    O99     O    0.58224   0.60190   0.40045   1.000
    O100    O    0.66675   0.60394   0.40223   1.000
    O101    O    0.08187   0.60204   0.40053   1.000
    O102    O    0.16642   0.60401   0.40228   1.000
    O103    O    0.33134   0.39781   0.40050   1.000
    O104    O    0.41603   0.39616   0.40213   1.000
    O105    O    0.83157   0.39777   0.40049   1.000
    O106    O    0.91626   0.39603   0.40218   1.000
    O107    O    0.76958   0.45585   0.45675   1.000
    O108    O    0.51997   0.54383   0.45673   1.000
    O109    O    0.26946   0.45584   0.45678   1.000
    O110    O    0.01972   0.54393   0.45683   1.000
    O111    O    0.47917   0.45420   0.45837   1.000
    O112    O    0.97925   0.45411   0.45848   1.000
    O113    O    0.72947   0.54587   0.45853   1.000
    O114    O    0.22929   0.54590   0.45856   1.000
    O115    O    0.87514   0.59218   0.49185   1.000
    O116    O    0.37517   0.59268   0.49396   1.000
    O117    O    0.68746   0.47079   0.49997   1.000
    O118    O    0.62487   0.40792   0.50835   1.000
    O119    O    0.52076   0.54593   0.54153   1.000
    O120    O    0.48030   0.45610   0.54317   1.000
    O121    O    0.31256   0.52918   0.49998   1.000
    O122    O    0.81255   0.52924   0.50003   1.000
    O123    O    0.77053   0.45416   0.54146   1.000
    O124    O    0.73043   0.54420   0.54324   1.000
    O125    O    0.18744   0.47086   0.50003   1.000
    O126    O    0.27072   0.45414   0.54146   1.000
    O127    O    0.23054   0.54419   0.54323   1.000
    O128    O    0.12483   0.40734   0.50601   1.000
    O129    O    0.02084   0.54584   0.54163   1.000
    O130    O    0.98003   0.45620   0.54327   1.000
    O131    O    0.33361   0.39603   0.59774   1.000
    O132    O    0.83323   0.39609   0.59777   1.000
    O133    O    0.58376   0.60401   0.59782   1.000
    O134    O    0.08396   0.60387   0.59788   1.000
    O135    O    0.41816   0.39799   0.59948   1.000
    O136    O    0.16865   0.60222   0.59951   1.000
    O137    O    0.91775   0.39813   0.59955   1.000
    O138    O    0.66845   0.60229   0.59951   1.000
    O139    O    0.58172   0.89787   0.90056   1.000
    O140    O    0.66627   0.89617   0.90220   1.000
    O141    O    0.33186   0.10202   0.90040   1.000
    O142    O    0.41652   0.10402   0.90221   1.000
    O143    O    0.83192   0.10206   0.90041   1.000
    O144    O    0.91659   0.10409   0.90221   1.000
    O145    O    0.08153   0.89781   0.90058   1.000
    O146    O    0.16609   0.89613   0.90222   1.000
    O147    O    0.26970   0.04398   0.95667   1.000
    O148    O    0.51970   0.95597   0.95684   1.000
    O149    O    0.47937   0.04599   0.95848   1.000
    O150    O    0.22914   0.95425   0.95848   1.000
    O151    O    0.56255   0.02923   0.99997   1.000
    O152    O    0.68755   0.02923   0.99998   1.000
    O153    O    0.18754   0.02920   0.99998   1.000
    O154    O    0.56248   0.47079   0.49994   1.000
    O155    O    0.06242   0.47085   0.50006   1.000
    O156    O    0.81245   0.97079   0.00001   1.000
    O157    O    0.31245   0.97082   0.99999   1.000
    O158    O    0.93753   0.52924   0.50007   1.000
    O159    O    0.43758   0.52918   0.49995   1.000
    N160    N    0.37493   0.25007   0.25004   1.000
    O161    O    0.37537   0.20041   0.19906   1.000
    O162    O    0.37447   0.29980   0.30094   1.000
    N163    N    0.37504   0.25003   0.75007   1.000
    O164    O    0.37479   0.20027   0.80095   1.000
    O165    O    0.37530   0.29969   0.69908   1.000
    N166    N    0.87489   0.25005   0.75007   1.000
    O167    O    0.87472   0.20030   0.80096   1.000
    O168    O    0.87506   0.29973   0.69909   1.000
    N169    N    0.62502   0.75008   0.74991   1.000
    O170    O    0.62465   0.79973   0.80091   1.000
    O171    O    0.62542   0.70035   0.69902   1.000
    N172    N    0.13191   0.74997   0.74996   1.000
    O173    O    0.12802   0.79964   0.80095   1.000
    O174    O    0.12893   0.70024   0.69907   1.000
    N175    N    0.62508   0.74998   0.24993   1.000
    O176    O    0.62492   0.70030   0.30090   1.000
    O177    O    0.62525   0.79973   0.19905   1.000
    N178    N    0.87502   0.24995   0.25010   1.000
    O179    O    0.87540   0.20030   0.19911   1.000
    O180    O    0.87462   0.29969   0.30099   1.000
    N181    N    0.13181   0.75000   0.24993   1.000
    O182    O    0.12866   0.79974   0.19905   1.000
    O183    O    0.12814   0.70033   0.30092   1.000
loop_
    _geom_bond_atom_site_label_1
    _geom_bond_atom_site_label_2
    _geom_bond_distance
    _geom_bond_site_symmetry_2
    _ccdc_geom_bond_type
    Zr52   O72       0.93067      .   S
    Zr0    O72       0.93067  1_545   S
    Zr52   O73       0.48480  1_554   S
    Zr12   O73       0.48480      .   S
    Zr53   O74       0.48486  1_554   S
    Zr13   O74       0.48486      .   S
    Zr53   O75       0.93052  1_554   S
    Zr1    O75       0.93052  1_545   S
    Zr4    O76       0.96400      .   S
    Zr66   O76       0.96400      .   S
    Zr4    O77       0.96546  1_545   S
    Zr38   O77       0.96546      .   S
    Zr4    O78       0.96560  1_554   S
    Zr58   O78       0.96560      .   S
    Zr4    O79       0.96383  1_544   S
    Zr46   O79       0.96383      .   S
    Zr0    O80       0.96619  1_645   S
    Zr35   O80       0.96619      .   S
    Zr0    O81       0.96432      .   S
    Zr70   O81       0.96432      .   S
    Zr0    O82       0.96438  1_644   S
    Zr51   O82       0.96438      .   S
    Zr0    O83       0.96649  1_554   S
    Zr54   O83       0.96649      .   S
    Zr0    O84       0.93072  1_654   S
    Zr33   O84       0.93072      .   S
    Zr9    O85       0.48491      .   S
    Zr33   O85       0.48491  1_556   S
    Zr8    O86       0.48495      .   S
    Zr32   O86       0.48495  1_556   S
    Zr67   O87       0.63767      .   S
    Zr29   O87       0.63767      .   S
    Zr67   O88       0.96438      .   S
    Zr5    O88       0.96438  1_566   S
    Zr34   O89       0.63727      .   S
    Zr18   O89       0.63727      .   S
    Zr34   O90       0.96630      .   S
    Zr1    O90       0.96630  1_546   S
    Zr35   O91       0.63714      .   S
    Zr19   O91       0.63714      .   S
    Zr66   O92       0.63770      .   S
    Zr28   O92       0.63770      .   S
    Zr71   O93       0.63762      .   S
    Zr29   O93       0.63762      .   S
    Zr71   O94       0.96474      .   S
    Zr1    O94       0.96474  1_556   S
    Zr70   O95       0.63753      .   S
    Zr28   O95       0.63753      .   S
    Zr39   O96       0.63726      .   S
    Zr19   O96       0.63726      .   S
    Zr39   O97       0.96533      .   S
    Zr5    O97       0.96533  1_556   S
    Zr38   O98       0.63710      .   S
    Zr18   O98       0.63710      .   S
    Zr16   O99       0.63739      .   S
    Zr36   O99       0.63739      .   S
    Zr16   O100      0.63769      .   S
    Zr40   O100      0.63769      .   S
    Zr17   O101      0.63772      .   S
    Zr37   O101      0.63772      .   S
    Zr17   O102      0.63751      .   S
    Zr41   O102      0.63751      .   S
    Zr31   O103      0.63731      .   S
    Zr65   O103      0.63731      .   S
    Zr31   O104      0.63713      .   S
    Zr69   O104      0.63713      .   S
    Zr30   O105      0.63704      .   S
    Zr64   O105      0.63704      .   S
    Zr30   O106      0.63740      .   S
    Zr68   O106      0.63740      .   S
    Zr64   O107      0.96637      .   S
    Zr2    O107      0.96637      .   S
    Zr36   O108      0.96340      .   S
    Zr7    O108      0.96340      .   S
    Zr65   O109      0.96564      .   S
    Zr3    O109      0.96564      .   S
    Zr37   O110      0.96400      .   S
    Zr6    O110      0.96400  1_655   S
    Zr69   O111      0.96558      .   S
    Zr7    O111      0.96558      .   S
    Zr68   O112      0.96594      .   S
    Zr6    O112      0.96594      .   S
    Zr40   O113      0.96402      .   S
    Zr2    O113      0.96402      .   S
    Zr41   O114      0.96487      .   S
    Zr3    O114      0.96487      .   S
    Zr14   O115      0.48497      .   S
    Zr62   O115      0.48497      .   S
    Zr15   O116      0.48485      .   S
    Zr63   O116      0.48485      .   S
    Zr42   O117      0.93077      .   S
    Zr2    O117      0.93077      .   S
    Zr42   O118      0.48498      .   S
    Zr10   O118      0.48498      .   S
    Zr7    O119      0.96602      .   S
    Zr48   O119      0.96602      .   S
    Zr7    O120      0.96400      .   S
    Zr57   O120      0.96400      .   S
    Zr63   O121      0.93056      .   S
    Zr3    O121      0.93056      .   S
    Zr2    O122      0.93075      .   S
    Zr62   O122      0.93075      .   S
    Zr2    O123      0.96408      .   S
    Zr60   O123      0.96408      .   S
    Zr2    O124      0.96641      .   S
    Zr44   O124      0.96641      .   S
    Zr3    O125      0.93056      .   S
    Zr43   O125      0.93056      .   S
    Zr3    O126      0.96489      .   S
    Zr61   O126      0.96489      .   S
    Zr3    O127      0.96568      .   S
    Zr45   O127      0.96568      .   S
    Zr43   O128      0.48486      .   S
    Zr11   O128      0.48486      .   S
    Zr6    O129      0.96555  1_655   S
    Zr49   O129      0.96555      .   S
    Zr6    O130      0.96348      .   S
    Zr56   O130      0.96348      .   S
    Zr61   O131      0.63751      .   S
    Zr25   O131      0.63751      .   S
    Zr60   O132      0.63770      .   S
    Zr24   O132      0.63770      .   S
    Zr48   O133      0.63739      .   S
    Zr22   O133      0.63739      .   S
    Zr49   O134      0.63715      .   S
    Zr23   O134      0.63715      .   S
    Zr57   O135      0.63774      .   S
    Zr25   O135      0.63774      .   S
    Zr45   O136      0.63730      .   S
    Zr23   O136      0.63730      .   S
    Zr56   O137      0.63738      .   S
    Zr24   O137      0.63738      .   S
    Zr44   O138      0.63707      .   S
    Zr22   O138      0.63707      .   S
    Zr20   O139      0.63748      .   S
    Zr50   O139      0.63748      .   S
    Zr20   O140      0.63773      .   S
    Zr46   O140      0.63773      .   S
    Zr27   O141      0.63720      .   S
    Zr59   O141      0.63720      .   S
    Zr27   O142      0.63717      .   S
    Zr55   O142      0.63717      .   S
    Zr26   O143      0.63715      .   S
    Zr58   O143      0.63715      .   S
    Zr26   O144      0.63722      .   S
    Zr54   O144      0.63722      .   S
    Zr21   O145      0.63766      .   S
    Zr51   O145      0.63766      .   S
    Zr21   O146      0.63762      .   S
    Zr47   O146      0.63762      .   S
    Zr59   O147      0.96533      .   S
    Zr5    O147      0.96533  1_565   S
    Zr50   O148      0.96423      .   S
    Zr1    O148      0.96423  1_545   S
    Zr55   O149      0.96609      .   S
    Zr1    O149      0.96609      .   S
    Zr47   O150      0.96402      .   S
    Zr5    O150      0.96402      .   S
    Zr32   O151      0.93078      .   S
    Zr1    O151      0.93078      .   S
    Zr32   O152      0.93097      .   S
    Zr4    O152      0.93097  1_554   S
    Zr33   O153      0.93089      .   S
    Zr5    O153      0.93089  1_565   S
    Zr42   O154      0.93080      .   S
    Zr7    O154      0.93080      .   S
    Zr43   O155      0.93066      .   S
    Zr6    O155      0.93066  1_655   S
    Zr52   O156      0.93098      .   S
    Zr4    O156      0.93098  1_545   S
    Zr53   O157      0.93079  1_554   S
    Zr5    O157      0.93079      .   S
    Zr62   O158      0.93078      .   S
    Zr6    O158      0.93078      .   S
    Zr63   O159      0.93070      .   S
    Zr7    O159      0.93070      .   S
    N160   O161      1.07421      .   S
    Zr29   O161      1.82117      .   S
    N160   O162      1.07360      .   S
    Zr31   O162      1.82154      .   S
    N163   O164      1.07364      .   S
    Zr27   O164      1.82162      .   S
    N163   O165      1.07425      .   S
    Zr25   O165      1.82125      .   S
    N166   O167      1.07363      .   S
    Zr26   O167      1.82165      .   S
    N166   O168      1.07418      .   S
    Zr24   O168      1.82109      .   S
    N169   O170      1.07414      .   S
    Zr20   O170      1.82103      .   S
    N169   O171      1.07357      .   S
    Zr22   O171      1.82155      .   S
    N172   O173      1.07554      .   S
    Zr21   O173      1.82206      .   S
    N172   O174      1.07424      .   S
    Zr23   O174      1.82180      .   S
    N175   O176      1.07417      .   S
    Zr16   O176      1.82106      .   S
    N175   O177      1.07364      .   S
    Zr18   O177      1.82164      .   S
    N178   O179      1.07414      .   S
    Zr28   O179      1.82102      .   S
    N178   O180      1.07357      .   S
    Zr30   O180      1.82154      .   S
    N181   O182      1.07449      .   S
    Zr19   O182      1.82205      .   S
    N181   O183      1.07534      .   S
    Zr17   O183      1.82196      .   S
