# CIF file generated by openbabel 2.4.90, see http://openbabel.sf.net
data_I
_chemical_name_common ''
_cell_length_a 22.218
_cell_length_b 14.321
_cell_length_c 18.373
_cell_angle_alpha 74.409
_cell_angle_beta 72.493
_cell_angle_gamma 67.103
_space_group_name_H-M_alt 'P 1'
_space_group_name_Hall 'P 1'
loop_
    _symmetry_equiv_pos_as_xyz
    x,y,z
loop_
    _atom_site_label
    _atom_site_type_symbol
    _atom_site_fract_x
    _atom_site_fract_y
    _atom_site_fract_z
    _atom_site_occupancy
    Cu0     Cu   0.70464   0.74092   0.60225   1.000
    Cu1     Cu   0.30123   0.74904   0.74098   1.000
    Cu2     Cu   0.80124   0.74903   0.74099   1.000
    Cu3     Cu   0.37664   0.75968   0.89725   1.000
    Cu4     Cu   0.87665   0.75966   0.89726   1.000
    Cu5     Cu   0.04626   0.75148   0.75846   1.000
    Cu6     Cu   0.54626   0.75148   0.75847   1.000
    Cu7     Cu   0.29536   0.25910   0.39772   1.000
    Cu8     Cu   0.79537   0.25909   0.39772   1.000
    Cu9     Cu   0.19875   0.25101   0.25897   1.000
    Cu10    Cu   0.69877   0.25100   0.25898   1.000
    Cu11    Cu   0.12335   0.24036   0.10271   1.000
    Cu12    Cu   0.62336   0.24035   0.10271   1.000
    Cu13    Cu   0.45374   0.24854   0.24150   1.000
    Cu14    Cu   0.95374   0.24854   0.24150   1.000
    Cu15    Cu   0.20463   0.74093   0.60225   1.000
    W16     W    0.42742   0.73994   0.74610   1.000
    W17     W    0.92743   0.73992   0.74613   1.000
    W18     W    0.17042   0.76055   0.75336   1.000
    W19     W    0.67043   0.76054   0.75337   1.000
    W20     W    0.07257   0.26011   0.25384   1.000
    W21     W    0.57258   0.26010   0.25384   1.000
    W22     W    0.32957   0.23948   0.24660   1.000
    W23     W    0.82958   0.23948   0.24661   1.000
loop_
    _geom_bond_atom_site_label_1
    _geom_bond_atom_site_label_2
    _geom_bond_distance
    _geom_bond_site_symmetry_2
    _ccdc_geom_bond_type
    Cu12   W21       2.71147      .   S
    Cu11   W20       2.71145      .   S
    Cu14   W23       2.78424      .   S
    Cu13   W22       2.78428      .   S
    W22    Cu7       2.71093      .   S
    W23    Cu8       2.71076      .   S
    W21    Cu10      2.78460      .   S
    W20    Cu9       2.78456      .   S
    Cu15   W18       2.71077      .   S
    Cu0    W19       2.71095      .   S
    Cu1    W16       2.78445      .   S
    Cu2    W17       2.78462      .   S
    W16    Cu3       2.71179      .   S
    W17    Cu4       2.71143      .   S
    W18    Cu5       2.78428      .   S
    W19    Cu6       2.78428      .   S
