# CIF file generated by openbabel 2.4.90, see http://openbabel.sf.net
data_I
_chemical_name_common ''
_cell_length_a 13.958
_cell_length_b 14.283
_cell_length_c 14.292
_cell_angle_alpha 95.047
_cell_angle_beta 106.523
_cell_angle_gamma 107.078
_space_group_name_H-M_alt 'P 1'
_space_group_name_Hall 'P 1'
loop_
    _symmetry_equiv_pos_as_xyz
    x,y,z
loop_
    _atom_site_label
    _atom_site_type_symbol
    _atom_site_fract_x
    _atom_site_fract_y
    _atom_site_fract_z
    _atom_site_occupancy
    H0      H    0.45277   0.68841   0.91012   1.000
    H1      H    0.48394   0.51612   0.91473   1.000
    H2      H    0.03418   0.77697   0.84003   1.000
    H3      H    0.07288   0.60831   0.85817   1.000
    H4      H    0.78396   0.18640   0.71007   1.000
    H5      H    0.95548   0.16970   0.70287   1.000
    H6      H    0.01521   0.07762   0.97373   1.000
    H7      H    0.84532   0.08484   0.99089   1.000
    H8      H    0.04898   0.09026   0.31434   1.000
    H9      H    0.01837   0.08593   0.48706   1.000
    H10     H    0.46642   0.16137   0.22080   1.000
    H11     H    0.42869   0.14450   0.39025   1.000
    H12     H    0.71910   0.29016   0.81254   1.000
    H13     H    0.54756   0.29793   0.82888   1.000
    H14     H    0.48420   0.02727   0.92288   1.000
    H15     H    0.65399   0.00959   0.91608   1.000
    H16     H    0.54723   0.31158   0.08987   1.000
    H17     H    0.51606   0.48387   0.08526   1.000
    H18     H    0.96582   0.22302   0.15997   1.000
    H19     H    0.92713   0.39169   0.14183   1.000
    H20     H    0.21605   0.81361   0.28993   1.000
    H21     H    0.04452   0.83030   0.29713   1.000
    H22     H    0.00000   0.92236   0.02626   1.000
    H23     H    0.15468   0.91515   0.00910   1.000
    H24     H    0.95102   0.90973   0.68566   1.000
    H25     H    0.98163   0.91406   0.51293   1.000
    H26     H    0.53358   0.83862   0.77919   1.000
    H27     H    0.57131   0.85549   0.60975   1.000
    H28     H    0.28090   0.70984   0.18746   1.000
    H29     H    0.45244   0.70206   0.17112   1.000
    H30     H    0.51580   0.97271   0.07710   1.000
    H31     H    0.34600   0.99040   0.08391   1.000
    C32     C    0.20826   0.94979   0.84224   1.000
    C33     C    0.29794   0.33778   0.87194   1.000
    C34     C    0.31369   0.44501   0.87580   1.000
    C35     C    0.28221   0.60772   0.86957   1.000
    C36     C    0.19635   0.84391   0.84278   1.000
    C37     C    0.38907   0.61719   0.89360   1.000
    C38     C    0.40638   0.52492   0.89679   1.000
    C39     C    0.23387   0.68442   0.85938   1.000
    C40     C    0.10946   0.76682   0.84429   1.000
    C41     C    0.13042   0.67691   0.85385   1.000
    C42     C    0.83298   0.16231   0.77051   1.000
    C43     C    0.92781   0.15299   0.76552   1.000
    C44     C    0.96032   0.09946   0.91642   1.000
    C45     C    0.86570   0.10469   0.92560   1.000
    C46     C    0.80042   0.13842   0.85232   1.000
    C47     C    0.29155   0.15673   0.04963   1.000
    C48     C    0.20462   0.12978   0.66341   1.000
    C49     C    0.18861   0.12568   0.55630   1.000
    C50     C    0.21954   0.13162   0.39314   1.000
    C51     C    0.30409   0.15703   0.15552   1.000
    C52     C    0.11280   0.10714   0.38487   1.000
    C53     C    0.09580   0.10411   0.47739   1.000
    C54     C    0.26750   0.14163   0.31579   1.000
    C55     C    0.39129   0.15673   0.23179   1.000
    C56     C    0.37085   0.14784   0.32214   1.000
    C57     C    0.66926   0.22987   0.83701   1.000
    C58     C    0.57443   0.23519   0.84612   1.000
    C59     C    0.53990   0.08443   0.90073   1.000
    C60     C    0.63444   0.07494   0.89573   1.000
    C61     C    0.70078   0.14798   0.86159   1.000
    C62     C    0.79174   0.05020   0.15775   1.000
    C63     C    0.70205   0.66221   0.12806   1.000
    C64     C    0.68630   0.55498   0.12419   1.000
    C65     C    0.71779   0.39227   0.13042   1.000
    C66     C    0.80365   0.15608   0.15722   1.000
    C67     C    0.61093   0.38280   0.10639   1.000
    C68     C    0.59362   0.47507   0.10320   1.000
    C69     C    0.76613   0.31558   0.14061   1.000
    C70     C    0.89055   0.23318   0.15571   1.000
    C71     C    0.86958   0.32308   0.14614   1.000
    C72     C    0.16702   0.83769   0.22948   1.000
    C73     C    0.07219   0.84700   0.23448   1.000
    C74     C    0.03968   0.90052   0.08357   1.000
    C75     C    0.13430   0.89530   0.07440   1.000
    C76     C    0.19959   0.86158   0.14767   1.000
    C77     C    0.70845   0.84326   0.95037   1.000
    C78     C    0.79538   0.87021   0.33659   1.000
    C79     C    0.81139   0.87432   0.44370   1.000
    C80     C    0.78046   0.86838   0.60686   1.000
    C81     C    0.69591   0.84296   0.84448   1.000
    C82     C    0.88720   0.89286   0.61512   1.000
    C83     C    0.90420   0.89589   0.52261   1.000
    C84     C    0.73250   0.85836   0.68421   1.000
    C85     C    0.60871   0.84326   0.76821   1.000
    C86     C    0.62916   0.85215   0.67786   1.000
    C87     C    0.33074   0.77012   0.16300   1.000
    C88     C    0.42557   0.76480   0.15388   1.000
    C89     C    0.46010   0.91556   0.09926   1.000
    C90     C    0.36556   0.92505   0.10426   1.000
    C91     C    0.29923   0.85201   0.13841   1.000
    S92     S    0.30412   0.80422   0.85124   1.000
    S93     S    0.20392   0.48356   0.85086   1.000
    S94     S    0.19669   0.14825   0.19650   1.000
    S95     S    0.29811   0.15103   0.51648   1.000
    S96     S    0.69588   0.19577   0.14875   1.000
    S97     S    0.79608   0.51643   0.14913   1.000
    S98     S    0.80331   0.85174   0.80349   1.000
    S99     S    0.70188   0.84897   0.48352   1.000
    N100    N    0.99149   0.12319   0.83802   1.000
    N101    N    0.50976   0.16291   0.87636   1.000
    N102    N    0.00852   0.87681   0.16198   1.000
    N103    N    0.49024   0.83707   0.12362   1.000
    O104    O    0.12797   0.97657   0.83917   1.000
    O105    O    0.38035   0.31149   0.89324   1.000
    O106    O    0.30016   0.00698   0.84782   1.000
    O107    O    0.20196   0.28014   0.84750   1.000
    O108    O    0.37166   0.16056   0.02182   1.000
    O109    O    0.12224   0.10720   0.69044   1.000
    O110    O    0.19935   0.14968   0.99346   1.000
    O111    O    0.30065   0.15569   0.72019   1.000
    O112    O    0.87202   0.02342   0.16082   1.000
    O113    O    0.61965   0.68851   0.10676   1.000
    O114    O    0.69984   0.99301   0.15217   1.000
    O115    O    0.79804   0.71985   0.15250   1.000
    O116    O    0.62833   0.83942   0.97817   1.000
    O117    O    0.87776   0.89279   0.30955   1.000
    O118    O    0.80065   0.85031   0.00653   1.000
    O119    O    0.69934   0.84431   0.27981   1.000
loop_
    _geom_bond_atom_site_label_1
    _geom_bond_atom_site_label_2
    _geom_bond_distance
    _geom_bond_site_symmetry_2
    _ccdc_geom_bond_type
    O118   C77       1.27782  1_554   S
    H23    C75       1.08733      .   S
    O108   C47       1.27743      .   S
    H22    C74       0.98148      .   S
    C47    C51       1.47267      .   S
    C47    O110      1.27783  1_554   S
    C75    C74       1.38633      .   S
    C75    C76       1.40099      .   S
    H30    C89       1.08798      .   S
    C74    N102      1.34804      .   S
    H31    C90       1.08744      .   S
    H17    C68       1.08685      .   S
    H16    C67       1.08997      .   S
    C89    C90       1.38635      .   S
    C89    N103      1.34809      .   S
    C68    C67       1.41023      .   S
    C68    C64       1.38491      .   S
    C90    C91       1.40103      .   S
    C67    C65       1.39377      .   S
    O113   C63       1.27722      .   S
    N103   C88       1.34928      .   S
    C64    C63       1.47567      .   S
    C64    S97       1.73130      .   S
    C63    O115      1.27676      .   S
    C65    C69       1.44320      .   S
    C65    S97       1.73861      .   S
    C91    C76       1.47770      .   S
    C91    C87       1.40416      .   S
    C69    C71       1.39485      .   S
    C69    S96       1.73711      .   S
    H19    C71       1.08886      .   S
    C71    C70       1.40785      .   S
    C76    C72       1.40414      .   S
    S96    C66       1.73439      .   S
    O114   C62       1.27821  1_565   S
    C88    C87       1.38936      .   S
    C88    H29       1.08992      .   S
    C51    S94       1.73431      .   S
    C51    C55       1.38523      .   S
    C70    C66       1.38519      .   S
    C70    H18       1.08785      .   S
    C66    C62       1.47301      .   S
    C62    O112      1.27699      .   S
    N102   C73       1.34929      .   S
    C87    H28       1.08953      .   S
    S94    C54       1.73699      .   S
    H10    C55       1.08783      .   S
    C72    C73       1.38939      .   S
    C72    H20       1.08953      .   S
    C55    C56       1.40783      .   S
    C73    H21       1.08994      .   S
    O119   C78       1.27646      .   S
    O117   C78       1.27760      .   S
    H8     C52       1.09001      .   S
    C54    C56       1.39492      .   S
    C54    C50       1.44325      .   S
    C56    H11       1.08885      .   S
    C78    C79       1.47605      .   S
    C52    C50       1.39387      .   S
    C52    C53       1.41024      .   S
    C50    S95       1.73864      .   S
    C79    S99       1.73126      .   S
    C79    C83       1.38504      .   S
    C53    H9        1.08684      .   S
    C53    C49       1.38504      .   S
    S99    C80       1.73865      .   S
    H25    C83       1.08685      .   S
    S95    C49       1.73126      .   S
    C83    C82       1.41023      .   S
    C49    C48       1.47606      .   S
    C80    C82       1.39388      .   S
    C80    C84       1.44325      .   S
    H27    C86       1.08885      .   S
    C82    H24       1.09001      .   S
    C48    O109      1.27759      .   S
    C48    O111      1.27646      .   S
    C86    C84       1.39491      .   S
    C86    C85       1.40784      .   S
    C84    S98       1.73700      .   S
    H5     C43       1.08993      .   S
    H4     C42       1.08952      .   S
    C43    C42       1.38939      .   S
    C43    N100      1.34930      .   S
    C85    H26       1.08783      .   S
    C85    C81       1.38523      .   S
    C42    C46       1.40413      .   S
    S98    C81       1.73430      .   S
    H12    C57       1.08953      .   S
    H13    C58       1.08992      .   S
    C57    C58       1.38937      .   S
    C57    C61       1.40415      .   S
    N100   C44       1.34805      .   S
    O104   C32       1.27701      .   S
    H2     C40       1.08785      .   S
    C32    C36       1.47302      .   S
    C32    O106      1.27821  1_565   S
    C36    C40       1.38520      .   S
    C36    S92       1.73439      .   S
    C40    C41       1.40785      .   S
    C81    C77       1.47267      .   S
    C58    N101      1.34927      .   S
    O107   C33       1.27676      .   S
    S93    C35       1.73862      .   S
    S93    C34       1.73129      .   S
    S92    C39       1.73710      .   S
    C46    C61       1.47770      .   S
    C46    C45       1.40099      .   S
    C41    H3        1.08886      .   S
    C41    C39       1.39484      .   S
    C39    C35       1.44320      .   S
    C61    C60       1.40105      .   S
    C35    C37       1.39376      .   S
    C33    C34       1.47568      .   S
    C33    O105      1.27724      .   S
    C34    C38       1.38491      .   S
    N101   C59       1.34810      .   S
    C37    C38       1.41024      .   S
    C37    H0        1.08996      .   S
    C60    C59       1.38635      .   S
    C60    H15       1.08743      .   S
    C38    H1        1.08684      .   S
    C59    H14       1.08797      .   S
    C44    C45       1.38631      .   S
    C44    H6        1.08796  1_655   S
    C45    H7        1.08734      .   S
    C77    O116      1.27743      .   S
