# CIF file generated by openbabel 2.4.90, see http://openbabel.sf.net
data_I
_chemical_name_common ''
_cell_length_a 13.958
_cell_length_b 14.283
_cell_length_c 14.292
_cell_angle_alpha 95.047
_cell_angle_beta 106.523
_cell_angle_gamma 107.078
_space_group_name_H-M_alt 'P 1'
_space_group_name_Hall 'P 1'
loop_
    _symmetry_equiv_pos_as_xyz
    x,y,z
loop_
    _atom_site_label
    _atom_site_type_symbol
    _atom_site_fract_x
    _atom_site_fract_y
    _atom_site_fract_z
    _atom_site_occupancy
    N0      N    0.75060   0.14300   0.85719   1.000
    N1      N    0.24489   0.13564   0.35507   1.000
    N2      N    0.74351   0.35463   0.13484   1.000
    N3      N    0.25016   0.85700   0.14280   1.000
    N4      N    0.25649   0.64536   0.86516   1.000
    N5      N    0.75511   0.86435   0.64493   1.000
    Zr6     Zr   0.74930   0.85539   0.14421   1.000
    O7      O    0.57837   0.85133   0.13922   1.000
    O8      O    0.92067   0.86064   0.14815   1.000
    Zr9     Zr   0.25070   0.14461   0.85579   1.000
    O10     O    0.42181   0.14866   0.86078   1.000
    O11     O    0.07952   0.13935   0.85185   1.000
    O12     O    0.75243   0.99930   0.14340   1.000
    O13     O    0.74279   0.71130   0.14004   1.000
    O14     O    0.74640   0.85631   0.00041   1.000
    O15     O    0.75566   0.85927   0.28820   1.000
    O16     O    0.24434   0.14072   0.71180   1.000
    O17     O    0.25360   0.14368   0.99959   1.000
    O18     O    0.24757   0.00069   0.85659   1.000
    O19     O    0.25721   0.28870   0.85995   1.000
loop_
    _geom_bond_atom_site_label_1
    _geom_bond_atom_site_label_2
    _geom_bond_distance
    _geom_bond_site_symmetry_2
    _ccdc_geom_bond_type
    Zr6    O7        2.34975      .   S
    N3     O7        4.62038      .   S
    Zr6    O8        2.35537      .   S
    N3     O8        4.63670  1_455   S
    Zr9    O10       2.35241      .   S
    N0     O10       4.62836      .   S
    Zr9    O11       2.35271      .   S
    N0     O11       4.62872  1_655   S
    Zr6    O12       2.04424      .   S
    N2     O12       5.12440  1_545   S
    Zr6    O13       2.02804      .   S
    N2     O13       5.09125      .   S
    Zr6    O14       2.04538      .   S
    N5     O14       5.12690  1_556   S
    Zr6    O15       2.02952      .   S
    N5     O15       5.09474      .   S
    N1     O16       5.09475      .   S
    Zr9    O16       2.02952      .   S
    N1     O17       5.12689  1_554   S
    Zr9    O17       2.04538      .   S
    N4     O18       5.12442  1_565   S
    Zr9    O18       2.04425      .   S
    N4     O19       5.09124      .   S
    Zr9    O19       2.02803      .   S
