# CIF file generated by openbabel 2.4.90, see http://openbabel.sf.net
data_I
_chemical_name_common ''
_cell_length_a 13.958
_cell_length_b 14.283
_cell_length_c 14.292
_cell_angle_alpha 95.047
_cell_angle_beta 106.523
_cell_angle_gamma 107.078
_space_group_name_H-M_alt 'P 1'
_space_group_name_Hall 'P 1'
loop_
    _symmetry_equiv_pos_as_xyz
    x,y,z
loop_
    _atom_site_label
    _atom_site_type_symbol
    _atom_site_fract_x
    _atom_site_fract_y
    _atom_site_fract_z
    _atom_site_occupancy
    N0      N    0.75060   0.14300   0.85719   1.000
    N1      N    0.24489   0.13564   0.35507   1.000
    N2      N    0.74351   0.35463   0.13484   1.000
    N3      N    0.25016   0.85700   0.14280   1.000
    N4      N    0.25649   0.64536   0.86516   1.000
    N5      N    0.75511   0.86435   0.64493   1.000
    Zr6     Zr   0.74930   0.85539   0.14421   1.000
    O7      O    0.72791   0.99523   0.14079   1.000
    O8      O    0.57837   0.85133   0.13922   1.000
    O9      O    0.72187   0.85346   0.99657   1.000
    O10     O    0.73075   0.85407   0.28427   1.000
    O11     O    0.71789   0.70717   0.13512   1.000
    O12     O    0.76770   0.71543   0.14497   1.000
    O13     O    0.92067   0.86064   0.14815   1.000
    O14     O    0.78056   0.86448   0.29213   1.000
    O15     O    0.77092   0.85917   0.00425   1.000
    O16     O    0.77694   0.00337   0.14601   1.000
    Zr17    Zr   0.25070   0.14461   0.85579   1.000
    O18     O    0.42181   0.14866   0.86078   1.000
    O19     O    0.28211   0.29283   0.86488   1.000
    O20     O    0.27209   0.00476   0.85920   1.000
    O21     O    0.26925   0.14592   0.71573   1.000
    O22     O    0.27812   0.14653   0.00343   1.000
    O23     O    0.07952   0.13935   0.85185   1.000
    O24     O    0.22305   0.99662   0.85398   1.000
    O25     O    0.23230   0.28456   0.85502   1.000
    O26     O    0.22908   0.14083   0.99575   1.000
    O27     O    0.21944   0.13552   0.70787   1.000
loop_
    _geom_bond_atom_site_label_1
    _geom_bond_atom_site_label_2
    _geom_bond_distance
    _geom_bond_site_symmetry_2
    _ccdc_geom_bond_type
    Zr6    O7        2.10714      .   S
    N2     O7        5.08296  1_545   S
    Zr6    O8        2.34975      .   S
    N3     O8        4.62038      .   S
    Zr6    O9        2.03081  1_554   S
    N5     O9        5.18815      .   S
    Zr6    O10       2.09112      .   S
    N5     O10       5.05443      .   S
    Zr6    O11       2.01618      .   S
    N2     O11       5.15139      .   S
    Zr6    O12       2.08951      .   S
    N2     O12       5.05075      .   S
    Zr6    O13       2.35537      .   S
    N3     O13       4.63670  1_455   S
    Zr6    O14       2.01746      .   S
    N5     O14       5.15466      .   S
    Zr6    O15       2.10907      .   S
    N5     O15       5.08511  1_556   S
    Zr6    O16       2.03050  1_565   S
    N2     O16       5.18531      .   S
    Zr17   O18       2.35241      .   S
    N0     O18       4.62836      .   S
    Zr17   O19       2.01618      .   S
    N4     O19       5.15136      .   S
    Zr17   O20       2.10713      .   S
    N4     O20       5.08299  1_565   S
    Zr17   O21       2.09112      .   S
    N1     O21       5.05443      .   S
    Zr17   O22       2.03080  1_556   S
    N1     O22       5.18815      .   S
    Zr17   O23       2.35271      .   S
    N0     O23       4.62872  1_655   S
    Zr17   O24       2.03051  1_545   S
    N4     O24       5.18532      .   S
    Zr17   O25       2.08949      .   S
    N4     O25       5.05075      .   S
    Zr17   O26       2.10906      .   S
    N1     O26       5.08511  1_554   S
    Zr17   O27       2.01746      .   S
    N1     O27       5.15467      .   S
