# CIF file generated by openbabel 2.4.90, see http://openbabel.sf.net
data_I
_chemical_name_common ''
_cell_length_a 12.513
_cell_length_b 14.768
_cell_length_c 14.758
_cell_angle_alpha 120.039
_cell_angle_beta 90.035
_cell_angle_gamma 90.047
_space_group_name_H-M_alt 'P 1'
_space_group_name_Hall 'P 1'
loop_
    _symmetry_equiv_pos_as_xyz
    x,y,z
loop_
    _atom_site_label
    _atom_site_type_symbol
    _atom_site_fract_x
    _atom_site_fract_y
    _atom_site_fract_z
    _atom_site_occupancy
    H0      H    0.91308   0.65951   0.88255   1.000
    H1      H    0.90825   0.32220   0.71498   1.000
    H2      H    0.24549   0.22219   0.33971   1.000
    H3      H    0.24446   0.39286   0.67734   1.000
    H4      H    0.57989   0.11573   0.78108   1.000
    H5      H    0.57696   0.28209   0.61028   1.000
    H6      H    0.91272   0.34017   0.11775   1.000
    H7      H    0.90886   0.67745   0.28370   1.000
    H8      H    0.24517   0.77748   0.66029   1.000
    H9      H    0.24313   0.60771   0.32264   1.000
    H10     H    0.57990   0.88401   0.21930   1.000
    H11     H    0.57697   0.71768   0.39023   1.000
    H12     H    0.42000   0.77990   0.11538   1.000
    H13     H    0.42293   0.60997   0.28259   1.000
    H14     H    0.08694   0.88267   0.66009   1.000
    H15     H    0.09071   0.71651   0.32257   1.000
    H16     H    0.75393   0.34006   0.22243   1.000
    H17     H    0.75582   0.67744   0.39194   1.000
    H18     H    0.41988   0.21930   0.88459   1.000
    H19     H    0.42290   0.38932   0.71740   1.000
    H20     H    0.08675   0.11759   0.34036   1.000
    H21     H    0.09143   0.28477   0.67789   1.000
    H22     H    0.75453   0.66034   0.77780   1.000
    H23     H    0.75532   0.32294   0.60686   1.000
    C24     C    0.87707   0.58686   0.82250   1.000
    C25     C    0.92000   0.49108   0.80395   1.000
    C26     C    0.87530   0.39573   0.72720   1.000
    C27     C    0.21030   0.23518   0.41275   1.000
    C28     C    0.25443   0.31239   0.50819   1.000
    C29     C    0.21078   0.33158   0.60401   1.000
    C30     C    0.54392   0.17527   0.76786   1.000
    C31     C    0.58786   0.19374   0.69081   1.000
    C32     C    0.54336   0.26991   0.67140   1.000
    C33     C    0.87688   0.41299   0.17740   1.000
    C34     C    0.92011   0.50856   0.19553   1.000
    C35     C    0.87565   0.60409   0.27183   1.000
    C36     C    0.20982   0.76477   0.58736   1.000
    C37     C    0.25347   0.68765   0.49177   1.000
    C38     C    0.20970   0.66889   0.39606   1.000
    C39     C    0.54394   0.82436   0.23250   1.000
    C40     C    0.58786   0.80605   0.30969   1.000
    C41     C    0.54338   0.72976   0.32901   1.000
    C42     C    0.45598   0.76700   0.17520   1.000
    C43     C    0.41205   0.69007   0.19380   1.000
    C44     C    0.45656   0.67103   0.27033   1.000
    C45     C    0.12261   0.82278   0.58725   1.000
    C46     C    0.07949   0.80472   0.49157   1.000
    C47     C    0.12377   0.72824   0.39597   1.000
    C48     C    0.78932   0.41294   0.23516   1.000
    C49     C    0.74534   0.50845   0.31200   1.000
    C50     C    0.78932   0.60404   0.33087   1.000
    C51     C    0.45589   0.23234   0.82490   1.000
    C52     C    0.41195   0.30916   0.80618   1.000
    C53     C    0.45650   0.32837   0.72980   1.000
    C54     C    0.12278   0.17750   0.41310   1.000
    C55     C    0.07979   0.19598   0.50889   1.000
    C56     C    0.12446   0.27260   0.60436   1.000
    C57     C    0.78964   0.58729   0.76474   1.000
    C58     C    0.74547   0.49198   0.68742   1.000
    C59     C    0.78904   0.39618   0.66821   1.000
loop_
    _geom_bond_atom_site_label_1
    _geom_bond_atom_site_label_2
    _geom_bond_distance
    _geom_bond_site_symmetry_2
    _ccdc_geom_bond_type
    H12    C42       1.08916      .   S
    H6     C33       1.08902      .   S
    C42    C43       1.40706      .   S
    C42    C39       1.38721      .   S
    C33    C34       1.40596      .   S
    C33    C48       1.38880      .   S
    C43    C44       1.40787      .   S
    C34    C35       1.40698      .   S
    H10    C39       1.08980      .   S
    H16    C48       1.08923      .   S
    C39    C40       1.40737      .   S
    C48    C49       1.40674      .   S
    C44    H13       1.08897      .   S
    C44    C41       1.38843      .   S
    C35    H7        1.08916      .   S
    C35    C50       1.38856      .   S
    C40    C41       1.40750      .   S
    C49    C50       1.40648      .   S
    H15    C47       1.08900      .   S
    H9     C38       1.08917      .   S
    C41    H11       1.08893      .   S
    C50    H17       1.08905      .   S
    H2     C27       1.08919      .   S
    H20    C54       1.08920      .   S
    C47    C38       1.38827      .   S
    C47    C46       1.40701      .   S
    C38    C37       1.40670      .   S
    C27    C54       1.38837      .   S
    C27    C28       1.40683      .   S
    C54    C55       1.40615      .   S
    C46    C45       1.40635      .   S
    C37    C36       1.40680      .   S
    C28    C29       1.40658      .   S
    C55    C56       1.40706      .   S
    C45    C36       1.38834      .   S
    C45    H14       1.08924      .   S
    C36    H8        1.08923      .   S
    C29    C56       1.38854      .   S
    C29    H3        1.08912      .   S
    C56    H21       1.08909      .   S
    H23    C59       1.08906      .   S
    H5     C32       1.08884      .   S
    C59    C58       1.40675      .   S
    C59    C26       1.38843      .   S
    C32    C31       1.40743      .   S
    C32    C53       1.38819      .   S
    C58    C57       1.40674      .   S
    C31    C30       1.40740      .   S
    H1     C26       1.08926      .   S
    H19    C53       1.08908      .   S
    C26    C25       1.40710      .   S
    C53    C52       1.40803      .   S
    C57    H22       1.08928      .   S
    C57    C24       1.38842      .   S
    C30    H4        1.08916      .   S
    C30    C51       1.38733      .   S
    C25    C24       1.40637      .   S
    C52    C51       1.40731      .   S
    C24    H0        1.08917      .   S
    C51    H18       1.08915      .   S
