# CIF file generated by openbabel 2.4.90, see http://openbabel.sf.net
data_I
_chemical_name_common ''
_cell_length_a 12.513
_cell_length_b 14.768
_cell_length_c 14.758
_cell_angle_alpha 120.039
_cell_angle_beta 90.035
_cell_angle_gamma 90.047
_space_group_name_H-M_alt 'P 1'
_space_group_name_Hall 'P 1'
loop_
    _symmetry_equiv_pos_as_xyz
    x,y,z
loop_
    _atom_site_label
    _atom_site_type_symbol
    _atom_site_fract_x
    _atom_site_fract_y
    _atom_site_fract_z
    _atom_site_occupancy
    Zr0     Zr   0.16665   0.49946   0.99971   1.000
    Zr1     Zr   0.49964   0.50022   0.49948   1.000
    Zr2     Zr   0.83329   0.00041   0.50042   1.000
    Zr3     Zr   0.01195   0.49112   0.86740   1.000
    Zr4     Zr   0.34654   0.37491   0.50703   1.000
    Zr5     Zr   0.68076   0.13076   0.62904   1.000
    Zr6     Zr   0.01198   0.50826   0.13198   1.000
    Zr7     Zr   0.34525   0.62471   0.49252   1.000
    Zr8     Zr   0.68073   0.86932   0.37166   1.000
    Zr9     Zr   0.31917   0.62804   0.13066   1.000
    Zr10    Zr   0.98778   0.86832   0.49179   1.000
    Zr11    Zr   0.65305   0.50764   0.37440   1.000
    Zr12    Zr   0.31906   0.37098   0.86914   1.000
    Zr13    Zr   0.98784   0.13255   0.50882   1.000
    Zr14    Zr   0.65343   0.49318   0.62477   1.000
    Zr15    Zr   0.06992   0.57270   0.91775   1.000
    Zr16    Zr   0.03269   0.40971   0.87384   1.000
    Zr17    Zr   0.40259   0.34389   0.42449   1.000
    Zr18    Zr   0.36951   0.46225   0.58870   1.000
    Zr19    Zr   0.73662   0.07968   0.66016   1.000
    Zr20    Zr   0.70393   0.12630   0.54206   1.000
    Zr21    Zr   0.06972   0.42662   0.08179   1.000
    Zr22    Zr   0.03285   0.58953   0.12530   1.000
    Zr23    Zr   0.40273   0.65603   0.57433   1.000
    Zr24    Zr   0.36642   0.53676   0.41099   1.000
    Zr25    Zr   0.73655   0.92052   0.34059   1.000
    Zr26    Zr   0.70394   0.87395   0.45871   1.000
    Zr27    Zr   0.26332   0.65889   0.07927   1.000
    Zr28    Zr   0.29601   0.54116   0.12630   1.000
    Zr29    Zr   0.93005   0.91846   0.57348   1.000
    Zr30    Zr   0.96708   0.87492   0.41041   1.000
    Zr31    Zr   0.59706   0.42506   0.34387   1.000
    Zr32    Zr   0.62989   0.58972   0.46131   1.000
    Zr33    Zr   0.26318   0.34006   0.92040   1.000
    Zr34    Zr   0.29597   0.45781   0.87342   1.000
    Zr35    Zr   0.92992   0.08226   0.42714   1.000
    Zr36    Zr   0.96715   0.12611   0.59029   1.000
    Zr37    Zr   0.59761   0.57572   0.65543   1.000
    Zr38    Zr   0.63035   0.41132   0.53757   1.000
    O39     O    0.29125   0.64346   0.10497   1.000
    O40     O    0.04085   0.46744   0.10689   1.000
    O41     O    0.11818   0.46304   0.04075   1.000
    O42     O    0.02242   0.54889   0.12864   1.000
    O43     O    0.30759   0.58460   0.12848   1.000
    O44     O    0.23133   0.52031   0.06300   1.000
    O45     O    0.70864   0.89492   0.35612   1.000
    O46     O    0.62505   0.46635   0.35914   1.000
    O47     O    0.54835   0.46264   0.42167   1.000
    O48     O    0.69233   0.87164   0.41519   1.000
    O49     O    0.64147   0.54868   0.41786   1.000
    O50     O    0.97743   0.87162   0.45110   1.000
    O51     O    0.35584   0.58073   0.45176   1.000
    O52     O    0.37456   0.35940   0.46576   1.000
    O53     O    0.95888   0.10740   0.46798   1.000
    O54     O    0.76861   0.93718   0.47956   1.000
    O55     O    0.95891   0.89339   0.53263   1.000
    O56     O    0.37399   0.64037   0.53343   1.000
    O57     O    0.45119   0.57812   0.53691   1.000
    O58     O    0.43458   0.48123   0.54409   1.000
    O59     O    0.76861   0.06335   0.52124   1.000
    O60     O    0.88167   0.95943   0.53695   1.000
    O61     O    0.35803   0.41858   0.54787   1.000
    O62     O    0.97750   0.12933   0.54956   1.000
    O63     O    0.64189   0.45225   0.58117   1.000
    O64     O    0.69234   0.12853   0.58555   1.000
    O65     O    0.62552   0.53445   0.64010   1.000
    O66     O    0.70869   0.10522   0.64460   1.000
    O67     O    0.02232   0.45042   0.87062   1.000
    O68     O    0.04093   0.53191   0.89258   1.000
    O69     O    0.30752   0.41439   0.87128   1.000
    O70     O    0.29112   0.35552   0.89477   1.000
    O71     O    0.23131   0.47864   0.93656   1.000
    O72     O    0.11828   0.53608   0.95873   1.000
    O73     O    0.09967   0.45459   0.93677   1.000
    O74     O    0.45111   0.42205   0.46198   1.000
    O75     O    0.78496   0.04004   0.58029   1.000
    O76     O    0.09975   0.54450   0.06250   1.000
    O77     O    0.43303   0.51849   0.45524   1.000
    O78     O    0.78492   0.96046   0.42050   1.000
    O79     O    0.21499   0.57918   0.03949   1.000
    O80     O    0.90018   0.93766   0.45542   1.000
    O81     O    0.56477   0.54497   0.48039   1.000
    O82     O    0.21491   0.41976   0.96006   1.000
    O83     O    0.88161   0.04133   0.46378   1.000
    O84     O    0.90022   0.06326   0.54535   1.000
    O85     O    0.54863   0.53797   0.57745   1.000
    O86     O    0.56500   0.45577   0.51853   1.000
    N87     N    0.16648   0.74614   0.49156   1.000
    O88     O    0.23292   0.70116   0.49185   1.000
    O89     O    0.10006   0.79133   0.49162   1.000
    N90     N    0.49991   0.25152   0.74843   1.000
    O91     O    0.43271   0.29580   0.79305   1.000
    O92     O    0.56711   0.20689   0.70418   1.000
    N93     N    0.16707   0.25426   0.50866   1.000
    O94     O    0.10044   0.20926   0.50876   1.000
    O95     O    0.23378   0.29896   0.50814   1.000
    N96     N    0.83277   0.49141   0.74562   1.000
    O97     O    0.76611   0.49199   0.70086   1.000
    O98     O    0.89937   0.49125   0.79065   1.000
    N99     N    0.49996   0.74798   0.25180   1.000
    O100    O    0.43278   0.70352   0.20702   1.000
    O101    O    0.56712   0.79283   0.29624   1.000
    N102    N    0.83280   0.50862   0.25386   1.000
    O103    O    0.89942   0.50851   0.20881   1.000
    O104    O    0.76600   0.50833   0.29853   1.000
loop_
    _geom_bond_atom_site_label_1
    _geom_bond_atom_site_label_2
    _geom_bond_distance
    _geom_bond_site_symmetry_2
    _ccdc_geom_bond_type
    Zr27   O39       0.63579      .   S
    Zr9    O39       0.63579      .   S
    Zr21   O40       0.63875      .   S
    Zr6    O40       0.63875      .   S
    Zr21   O41       1.16187      .   S
    Zr0    O41       1.16187  1_556   S
    Zr22   O42       0.63964      .   S
    Zr6    O42       0.63964      .   S
    Zr28   O43       0.64243      .   S
    Zr9    O43       0.64243      .   S
    Zr28   O44       1.15463      .   S
    Zr0    O44       1.15463  1_556   S
    Zr25   O45       0.63573      .   S
    Zr8    O45       0.63573      .   S
    Zr31   O46       0.63824      .   S
    Zr11   O46       0.63824      .   S
    Zr31   O47       1.16676      .   S
    Zr1    O47       1.16676      .   S
    Zr8    O48       0.64245      .   S
    Zr26   O48       0.64245      .   S
    Zr11   O49       0.64086      .   S
    Zr32   O49       0.64086      .   S
    Zr30   O50       0.63952      .   S
    Zr10   O50       0.63952      .   S
    Zr24   O51       0.64055      .   S
    Zr7    O51       0.64055      .   S
    Zr17   O52       0.63804      .   S
    Zr4    O52       0.63804      .   S
    Zr35   O53       0.63869      .   S
    Zr13   O53       0.63869      .   S
    Zr26   O54       1.15425      .   S
    Zr2    O54       1.15425  1_545   S
    Zr10   O55       0.63869      .   S
    Zr29   O55       0.63869      .   S
    Zr7    O56       0.63799      .   S
    Zr23   O56       0.63799      .   S
    Zr1    O57       1.16696      .   S
    Zr23   O57       1.16696      .   S
    Zr1    O58       1.16616      .   S
    Zr18   O58       1.16616      .   S
    Zr2    O59       1.15293      .   S
    Zr20   O59       1.15293      .   S
    Zr2    O60       1.16192  1_545   S
    Zr29   O60       1.16192      .   S
    Zr4    O61       0.64060      .   S
    Zr18   O61       0.64060      .   S
    Zr13   O62       0.63959      .   S
    Zr36   O62       0.63959      .   S
    Zr38   O63       0.64075      .   S
    Zr14   O63       0.64075      .   S
    Zr20   O64       0.64265      .   S
    Zr5    O64       0.64265      .   S
    Zr14   O65       0.63798      .   S
    Zr37   O65       0.63798      .   S
    Zr5    O66       0.63560      .   S
    Zr19   O66       0.63560      .   S
    Zr3    O67       0.63963      .   S
    Zr16   O67       0.63963      .   S
    Zr3    O68       0.63865      .   S
    Zr15   O68       0.63865      .   S
    Zr12   O69       0.64254      .   S
    Zr34   O69       0.64254      .   S
    Zr12   O70       0.63555      .   S
    Zr33   O70       0.63555      .   S
    Zr34   O71       1.15415      .   S
    Zr0    O71       1.15415      .   S
    Zr15   O72       1.16275      .   S
    Zr0    O72       1.16275      .   S
    Zr16   O73       1.17734      .   S
    Zr0    O73       1.17734      .   S
    Zr17   O74       1.16888      .   S
    Zr1    O74       1.16888      .   S
    Zr19   O75       1.18681      .   S
    Zr2    O75       1.18681      .   S
    Zr22   O76       1.17757      .   S
    Zr0    O76       1.17757  1_556   S
    Zr24   O77       1.17048      .   S
    Zr1    O77       1.17048      .   S
    Zr25   O78       1.18627      .   S
    Zr2    O78       1.18627  1_545   S
    Zr27   O79       1.18441      .   S
    Zr0    O79       1.18441  1_556   S
    Zr30   O80       1.17734      .   S
    Zr2    O80       1.17734  1_545   S
    Zr32   O81       1.16870      .   S
    Zr1    O81       1.16870      .   S
    Zr33   O82       1.18515      .   S
    Zr0    O82       1.18515      .   S
    Zr35   O83       1.16197      .   S
    Zr2    O83       1.16197      .   S
    Zr36   O84       1.17667      .   S
    Zr2    O84       1.17667      .   S
    Zr37   O85       1.16918      .   S
    Zr1    O85       1.16918      .   S
    Zr38   O86       1.16784      .   S
    Zr1    O86       1.16784      .   S
    N87    O88       1.06596      .   S
    Zr7    O88       1.80676      .   S
    N87    O89       1.06604      .   S
    Zr10   O89       1.80731  1_655   S
    N90    O91       1.06710      .   S
    Zr12   O91       1.80892      .   S
    N90    O92       1.06709      .   S
    Zr5    O92       1.80892      .   S
    N93    O94       1.06617      .   S
    Zr13   O94       1.80754  1_655   S
    N93    O95       1.06618      .   S
    Zr4    O95       1.80701      .   S
    N96    O97       1.06645      .   S
    Zr14   O97       1.80747      .   S
    N96    O98       1.06629      .   S
    Zr3    O98       1.80767  1_455   S
    N99    O100      1.06699      .   S
    Zr9    O100      1.80870      .   S
    N99    O101      1.06710      .   S
    Zr8    O101      1.80891      .   S
    N102   O103      1.06619      .   S
    Zr6    O103      1.80749  1_455   S
    N102   O104      1.06619      .   S
    Zr11   O104      1.80680      .   S
