# CIF file generated by openbabel 2.4.90, see http://openbabel.sf.net
data_I
_chemical_name_common ''
_cell_length_a 12.513
_cell_length_b 14.768
_cell_length_c 14.758
_cell_angle_alpha 120.039
_cell_angle_beta 90.035
_cell_angle_gamma 90.047
_space_group_name_H-M_alt 'P 1'
_space_group_name_Hall 'P 1'
loop_
    _symmetry_equiv_pos_as_xyz
    x,y,z
loop_
    _atom_site_label
    _atom_site_type_symbol
    _atom_site_fract_x
    _atom_site_fract_y
    _atom_site_fract_z
    _atom_site_occupancy
    C0      C    0.16665   0.49946   0.99971   1.000
    C1      C    0.49964   0.50022   0.49948   1.000
    C2      C    0.83329   0.00041   0.50042   1.000
    C3      C    0.91308   0.65951   0.88255   1.000
    C4      C    0.90825   0.32220   0.71498   1.000
    C5      C    0.24549   0.22219   0.33971   1.000
    C6      C    0.24446   0.39286   0.67734   1.000
    C7      C    0.57989   0.11573   0.78108   1.000
    C8      C    0.57696   0.28209   0.61028   1.000
    C9      C    0.91272   0.34017   0.11775   1.000
    C10     C    0.90886   0.67745   0.28370   1.000
    C11     C    0.24517   0.77748   0.66029   1.000
    C12     C    0.24313   0.60771   0.32264   1.000
    C13     C    0.57990   0.88401   0.21930   1.000
    C14     C    0.57697   0.71768   0.39023   1.000
    C15     C    0.42000   0.77990   0.11538   1.000
    C16     C    0.42293   0.60997   0.28259   1.000
    C17     C    0.08694   0.88267   0.66009   1.000
    C18     C    0.09071   0.71651   0.32257   1.000
    C19     C    0.75393   0.34006   0.22243   1.000
    C20     C    0.75582   0.67744   0.39194   1.000
    C21     C    0.41988   0.21930   0.88459   1.000
    C22     C    0.42290   0.38932   0.71740   1.000
    C23     C    0.08675   0.11759   0.34036   1.000
    C24     C    0.09143   0.28477   0.67789   1.000
    C25     C    0.75453   0.66034   0.77780   1.000
    C26     C    0.75532   0.32294   0.60686   1.000
    C27     C    0.87707   0.58686   0.82250   1.000
    C28     C    0.92000   0.49108   0.80395   1.000
    C29     C    0.87530   0.39573   0.72720   1.000
    C30     C    0.01195   0.49112   0.86740   1.000
    C31     C    0.21030   0.23518   0.41275   1.000
    C32     C    0.25443   0.31239   0.50819   1.000
    C33     C    0.21078   0.33158   0.60401   1.000
    C34     C    0.34654   0.37491   0.50703   1.000
    C35     C    0.54392   0.17527   0.76786   1.000
    C36     C    0.58786   0.19374   0.69081   1.000
    C37     C    0.54336   0.26991   0.67140   1.000
    C38     C    0.68076   0.13076   0.62904   1.000
    C39     C    0.87688   0.41299   0.17740   1.000
    C40     C    0.92011   0.50856   0.19553   1.000
    C41     C    0.87565   0.60409   0.27183   1.000
    C42     C    0.01198   0.50826   0.13198   1.000
    C43     C    0.20982   0.76477   0.58736   1.000
    C44     C    0.25347   0.68765   0.49177   1.000
    C45     C    0.20970   0.66889   0.39606   1.000
    C46     C    0.34525   0.62471   0.49252   1.000
    C47     C    0.54394   0.82436   0.23250   1.000
    C48     C    0.58786   0.80605   0.30969   1.000
    C49     C    0.54338   0.72976   0.32901   1.000
    C50     C    0.68073   0.86932   0.37166   1.000
    C51     C    0.45598   0.76700   0.17520   1.000
    C52     C    0.41205   0.69007   0.19380   1.000
    C53     C    0.45656   0.67103   0.27033   1.000
    C54     C    0.31917   0.62804   0.13066   1.000
    C55     C    0.12261   0.82278   0.58725   1.000
    C56     C    0.07949   0.80472   0.49157   1.000
    C57     C    0.12377   0.72824   0.39597   1.000
    C58     C    0.98778   0.86832   0.49179   1.000
    C59     C    0.78932   0.41294   0.23516   1.000
    C60     C    0.74534   0.50845   0.31200   1.000
    C61     C    0.78932   0.60404   0.33087   1.000
    C62     C    0.65305   0.50764   0.37440   1.000
    C63     C    0.45589   0.23234   0.82490   1.000
    C64     C    0.41195   0.30916   0.80618   1.000
    C65     C    0.45650   0.32837   0.72980   1.000
    C66     C    0.31906   0.37098   0.86914   1.000
    C67     C    0.12278   0.17750   0.41310   1.000
    C68     C    0.07979   0.19598   0.50889   1.000
    C69     C    0.12446   0.27260   0.60436   1.000
    C70     C    0.98784   0.13255   0.50882   1.000
    C71     C    0.78964   0.58729   0.76474   1.000
    C72     C    0.74547   0.49198   0.68742   1.000
    C73     C    0.78904   0.39618   0.66821   1.000
    C74     C    0.65343   0.49318   0.62477   1.000
    C75     C    0.06992   0.57270   0.91775   1.000
    C76     C    0.03269   0.40971   0.87384   1.000
    C77     C    0.40259   0.34389   0.42449   1.000
    C78     C    0.36951   0.46225   0.58870   1.000
    C79     C    0.73662   0.07968   0.66016   1.000
    C80     C    0.70393   0.12630   0.54206   1.000
    C81     C    0.06972   0.42662   0.08179   1.000
    C82     C    0.03285   0.58953   0.12530   1.000
    C83     C    0.40273   0.65603   0.57433   1.000
    C84     C    0.36642   0.53676   0.41099   1.000
    C85     C    0.73655   0.92052   0.34059   1.000
    C86     C    0.70394   0.87395   0.45871   1.000
    C87     C    0.26332   0.65889   0.07927   1.000
    C88     C    0.29601   0.54116   0.12630   1.000
    C89     C    0.93005   0.91846   0.57348   1.000
    C90     C    0.96708   0.87492   0.41041   1.000
    C91     C    0.59706   0.42506   0.34387   1.000
    C92     C    0.62989   0.58972   0.46131   1.000
    C93     C    0.26318   0.34006   0.92040   1.000
    C94     C    0.29597   0.45781   0.87342   1.000
    C95     C    0.92992   0.08226   0.42714   1.000
    C96     C    0.96715   0.12611   0.59029   1.000
    C97     C    0.59761   0.57572   0.65543   1.000
    C98     C    0.63035   0.41132   0.53757   1.000
    O99     O    0.29125   0.64346   0.10497   1.000
    O100    O    0.04085   0.46744   0.10689   1.000
    O101    O    0.11818   0.46304   0.04075   1.000
    O102    O    0.43799   0.77345   0.14529   1.000
    O103    O    0.89480   0.37658   0.14757   1.000
    O104    O    0.02242   0.54889   0.12864   1.000
    O105    O    0.30759   0.58460   0.12848   1.000
    O106    O    0.23133   0.52031   0.06300   1.000
    O107    O    0.36561   0.65905   0.16223   1.000
    O108    O    0.96605   0.50841   0.16375   1.000
    O109    O    0.43401   0.72853   0.18450   1.000
    O110    O    0.49996   0.79568   0.20385   1.000
    O111    O    0.89850   0.46077   0.18646   1.000
    O112    O    0.83310   0.41296   0.20628   1.000
    O113    O    0.43431   0.68055   0.23207   1.000
    O114    O    0.89788   0.55633   0.23368   1.000
    O115    O    0.56192   0.85418   0.22590   1.000
    O116    O    0.77163   0.37650   0.22879   1.000
    O117    O    0.56590   0.81520   0.27110   1.000
    O118    O    0.76733   0.46069   0.27358   1.000
    O119    O    0.43974   0.64050   0.27646   1.000
    O120    O    0.49997   0.70040   0.29967   1.000
    O121    O    0.89226   0.64077   0.27777   1.000
    O122    O    0.83248   0.60407   0.30135   1.000
    O123    O    0.56562   0.76791   0.31935   1.000
    O124    O    0.63429   0.83768   0.34068   1.000
    O125    O    0.76733   0.55624   0.32143   1.000
    O126    O    0.69920   0.50805   0.34320   1.000
    O127    O    0.10724   0.72237   0.35927   1.000
    O128    O    0.22642   0.63830   0.35935   1.000
    O129    O    0.56017   0.72372   0.35962   1.000
    O130    O    0.77257   0.64074   0.36141   1.000
    O131    O    0.22789   0.22868   0.37623   1.000
    O132    O    0.10476   0.14755   0.37673   1.000
    O133    O    0.70864   0.89492   0.35612   1.000
    O134    O    0.62505   0.46635   0.35914   1.000
    O135    O    0.54835   0.46264   0.42167   1.000
    O136    O    0.69233   0.87164   0.41519   1.000
    O137    O    0.64147   0.54868   0.41786   1.000
    O138    O    0.16673   0.69856   0.39602   1.000
    O139    O    0.10163   0.76648   0.44377   1.000
    O140    O    0.23159   0.67827   0.44391   1.000
    O141    O    0.97743   0.87162   0.45110   1.000
    O142    O    0.35584   0.58073   0.45176   1.000
    O143    O    0.16654   0.20634   0.41292   1.000
    O144    O    0.23236   0.27378   0.46047   1.000
    O145    O    0.10128   0.18674   0.46099   1.000
    O146    O    0.37456   0.35940   0.46576   1.000
    O147    O    0.95888   0.10740   0.46798   1.000
    O148    O    0.76861   0.93718   0.47956   1.000
    O149    O    0.03363   0.83652   0.49168   1.000
    O150    O    0.10105   0.81375   0.53941   1.000
    O151    O    0.29936   0.65618   0.49214   1.000
    O152    O    0.23164   0.72621   0.53957   1.000
    O153    O    0.95891   0.89339   0.53263   1.000
    O154    O    0.37399   0.64037   0.53343   1.000
    O155    O    0.45119   0.57812   0.53691   1.000
    O156    O    0.43458   0.48123   0.54409   1.000
    O157    O    0.76861   0.06335   0.52124   1.000
    O158    O    0.88167   0.95943   0.53695   1.000
    O159    O    0.30049   0.34365   0.50761   1.000
    O160    O    0.35803   0.41858   0.54787   1.000
    O161    O    0.23261   0.32198   0.55610   1.000
    O162    O    0.03381   0.16426   0.50886   1.000
    O163    O    0.97750   0.12933   0.54956   1.000
    O164    O    0.10212   0.23429   0.55663   1.000
    O165    O    0.64189   0.45225   0.58117   1.000
    O166    O    0.69234   0.12853   0.58555   1.000
    O167    O    0.16621   0.79378   0.58731   1.000
    O168    O    0.10477   0.85273   0.62367   1.000
    O169    O    0.22749   0.77113   0.62382   1.000
    O170    O    0.16762   0.30209   0.60419   1.000
    O171    O    0.22762   0.36222   0.64067   1.000
    O172    O    0.10795   0.27869   0.64113   1.000
    O173    O    0.77218   0.35956   0.63753   1.000
    O174    O    0.56016   0.27600   0.64084   1.000
    O175    O    0.62552   0.53445   0.64010   1.000
    O176    O    0.69945   0.49258   0.65610   1.000
    O177    O    0.70869   0.10522   0.64460   1.000
    O178    O    0.63431   0.16225   0.65992   1.000
    O179    O    0.76725   0.44408   0.67782   1.000
    O180    O    0.83217   0.39595   0.69770   1.000
    O181    O    0.56561   0.23182   0.68110   1.000
    O182    O    0.49993   0.29914   0.70060   1.000
    O183    O    0.76755   0.53963   0.72608   1.000
    O184    O    0.56589   0.18451   0.72933   1.000
    O185    O    0.89178   0.35896   0.72109   1.000
    O186    O    0.43970   0.35885   0.72360   1.000
    O187    O    0.89765   0.44340   0.76558   1.000
    O188    O    0.43422   0.31877   0.76799   1.000
    O189    O    0.77209   0.62381   0.77127   1.000
    O190    O    0.83336   0.58707   0.79362   1.000
    O191    O    0.56190   0.14550   0.77447   1.000
    O192    O    0.49990   0.20380   0.79638   1.000
    O193    O    0.89854   0.53897   0.81322   1.000
    O194    O    0.96598   0.49110   0.83567   1.000
    O195    O    0.43392   0.27075   0.81554   1.000
    O196    O    0.36550   0.34007   0.83766   1.000
    O197    O    0.89507   0.62318   0.85252   1.000
    O198    O    0.43788   0.22582   0.85475   1.000
    O199    O    0.02232   0.45042   0.87062   1.000
    O200    O    0.04093   0.53191   0.89258   1.000
    O201    O    0.30752   0.41439   0.87128   1.000
    O202    O    0.29112   0.35552   0.89477   1.000
    O203    O    0.23131   0.47864   0.93656   1.000
    O204    O    0.11828   0.53608   0.95873   1.000
    O205    O    0.09967   0.45459   0.93677   1.000
    O206    O    0.45111   0.42205   0.46198   1.000
    O207    O    0.78496   0.04004   0.58029   1.000
    O208    O    0.09975   0.54450   0.06250   1.000
    O209    O    0.43303   0.51849   0.45524   1.000
    O210    O    0.78492   0.96046   0.42050   1.000
    O211    O    0.21499   0.57918   0.03949   1.000
    O212    O    0.90018   0.93766   0.45542   1.000
    O213    O    0.56477   0.54497   0.48039   1.000
    O214    O    0.21491   0.41976   0.96006   1.000
    O215    O    0.88161   0.04133   0.46378   1.000
    O216    O    0.90022   0.06326   0.54535   1.000
    O217    O    0.54863   0.53797   0.57745   1.000
    O218    O    0.56500   0.45577   0.51853   1.000
loop_
    _geom_bond_atom_site_label_1
    _geom_bond_atom_site_label_2
    _geom_bond_distance
    _geom_bond_site_symmetry_2
    _ccdc_geom_bond_type
    C87    O99       0.63579      .   S
    C54    O99       0.63579      .   S
    C81    O100      0.63875      .   S
    C42    O100      0.63875      .   S
    C81    O101      1.16187      .   S
    C0     O101      1.16187  1_556   S
    C15    O102      0.54458      .   S
    C51    O102      0.54458      .   S
    C9     O103      0.54451      .   S
    C39    O103      0.54451      .   S
    C82    O104      0.63964      .   S
    C42    O104      0.63964      .   S
    C88    O105      0.64243      .   S
    C54    O105      0.64243      .   S
    C88    O106      1.15463      .   S
    C0     O106      1.15463  1_556   S
    C54    O107      0.74173      .   S
    C52    O107      0.74173      .   S
    C42    O108      0.74132  1_455   S
    C40    O108      0.74132      .   S
    C51    O109      0.70353      .   S
    C52    O109      0.70353      .   S
    C51    O110      0.69361      .   S
    C47    O110      0.69361      .   S
    C39    O111      0.70298      .   S
    C40    O111      0.70298      .   S
    C39    O112      0.69440      .   S
    C59    O112      0.69440      .   S
    C52    O113      0.70394      .   S
    C53    O113      0.70394      .   S
    C40    O114      0.70349      .   S
    C41    O114      0.70349      .   S
    C13    O115      0.54490      .   S
    C47    O115      0.54490      .   S
    C19    O116      0.54462      .   S
    C59    O116      0.54462      .   S
    C47    O117      0.70368      .   S
    C48    O117      0.70368      .   S
    C59    O118      0.70337      .   S
    C60    O118      0.70337      .   S
    C53    O119      0.54448      .   S
    C16    O119      0.54448      .   S
    C53    O120      0.69421      .   S
    C49    O120      0.69421      .   S
    C41    O121      0.54458      .   S
    C10    O121      0.54458      .   S
    C41    O122      0.69428      .   S
    C61    O122      0.69428      .   S
    C48    O123      0.70375      .   S
    C49    O123      0.70375      .   S
    C48    O124      0.74183      .   S
    C50    O124      0.74183      .   S
    C60    O125      0.70324      .   S
    C61    O125      0.70324      .   S
    C60    O126      0.74063      .   S
    C62    O126      0.74063      .   S
    C18    O127      0.54450      .   S
    C57    O127      0.54450      .   S
    C12    O128      0.54459      .   S
    C45    O128      0.54459      .   S
    C49    O129      0.54447      .   S
    C14    O129      0.54447      .   S
    C61    O130      0.54453      .   S
    C20    O130      0.54453      .   S
    C5     O131      0.54459      .   S
    C31    O131      0.54459      .   S
    C23    O132      0.54460      .   S
    C67    O132      0.54460      .   S
    C85    O133      0.63573      .   S
    C50    O133      0.63573      .   S
    C91    O134      0.63824      .   S
    C62    O134      0.63824      .   S
    C91    O135      1.16676      .   S
    C1     O135      1.16676      .   S
    C50    O136      0.64245      .   S
    C86    O136      0.64245      .   S
    C62    O137      0.64086      .   S
    C92    O137      0.64086      .   S
    C57    O138      0.69413      .   S
    C45    O138      0.69413      .   S
    C57    O139      0.70351      .   S
    C56    O139      0.70351      .   S
    C45    O140      0.70335      .   S
    C44    O140      0.70335      .   S
    C90    O141      0.63952      .   S
    C58    O141      0.63952      .   S
    C84    O142      0.64055      .   S
    C46    O142      0.64055      .   S
    C31    O143      0.69418      .   S
    C67    O143      0.69418      .   S
    C31    O144      0.70342      .   S
    C32    O144      0.70342      .   S
    C67    O145      0.70308      .   S
    C68    O145      0.70308      .   S
    C77    O146      0.63804      .   S
    C34    O146      0.63804      .   S
    C95    O147      0.63869      .   S
    C70    O147      0.63869      .   S
    C86    O148      1.15425      .   S
    C2     O148      1.15425  1_545   S
    C56    O149      0.74128      .   S
    C58    O149      0.74128  1_655   S
    C56    O150      0.70318      .   S
    C55    O150      0.70318      .   S
    C44    O151      0.74081      .   S
    C46    O151      0.74081      .   S
    C44    O152      0.70340      .   S
    C43    O152      0.70340      .   S
    C58    O153      0.63869      .   S
    C89    O153      0.63869      .   S
    C46    O154      0.63799      .   S
    C83    O154      0.63799      .   S
    C1     O155      1.16696      .   S
    C83    O155      1.16696      .   S
    C1     O156      1.16616      .   S
    C78    O156      1.16616      .   S
    C2     O157      1.15293      .   S
    C80    O157      1.15293      .   S
    C2     O158      1.16192  1_545   S
    C89    O158      1.16192      .   S
    C34    O159      0.74084      .   S
    C32    O159      0.74084      .   S
    C34    O160      0.64060      .   S
    C78    O160      0.64060      .   S
    C32    O161      0.70329      .   S
    C33    O161      0.70329      .   S
    C70    O162      0.74139  1_655   S
    C68    O162      0.74139      .   S
    C70    O163      0.63959      .   S
    C96    O163      0.63959      .   S
    C68    O164      0.70353      .   S
    C69    O164      0.70353      .   S
    C98    O165      0.64075      .   S
    C74    O165      0.64075      .   S
    C80    O166      0.64265      .   S
    C38    O166      0.64265      .   S
    C55    O167      0.69417      .   S
    C43    O167      0.69417      .   S
    C55    O168      0.54462      .   S
    C17    O168      0.54462      .   S
    C43    O169      0.54462      .   S
    C11    O169      0.54462      .   S
    C33    O170      0.69427      .   S
    C69    O170      0.69427      .   S
    C33    O171      0.54456      .   S
    C6     O171      0.54456      .   S
    C69    O172      0.54454      .   S
    C24    O172      0.54454      .   S
    C26    O173      0.54453      .   S
    C73    O173      0.54453      .   S
    C8     O174      0.54442      .   S
    C37    O174      0.54442      .   S
    C74    O175      0.63798      .   S
    C97    O175      0.63798      .   S
    C74    O176      0.74104      .   S
    C72    O176      0.74104      .   S
    C38    O177      0.63560      .   S
    C79    O177      0.63560      .   S
    C38    O178      0.74185      .   S
    C36    O178      0.74185      .   S
    C73    O179      0.70337      .   S
    C72    O179      0.70337      .   S
    C73    O180      0.69421      .   S
    C29    O180      0.69421      .   S
    C37    O181      0.70372      .   S
    C36    O181      0.70372      .   S
    C37    O182      0.69410      .   S
    C65    O182      0.69410      .   S
    C72    O183      0.70337      .   S
    C71    O183      0.70337      .   S
    C36    O184      0.70370      .   S
    C35    O184      0.70370      .   S
    C4     O185      0.54463      .   S
    C29    O185      0.54463      .   S
    C22    O186      0.54454      .   S
    C65    O186      0.54454      .   S
    C29    O187      0.70355      .   S
    C28    O187      0.70355      .   S
    C65    O188      0.70401      .   S
    C64    O188      0.70401      .   S
    C71    O189      0.54464      .   S
    C25    O189      0.54464      .   S
    C71    O190      0.69421      .   S
    C27    O190      0.69421      .   S
    C35    O191      0.54458      .   S
    C7     O191      0.54458      .   S
    C35    O192      0.69366      .   S
    C63    O192      0.69366      .   S
    C28    O193      0.70319      .   S
    C27    O193      0.70319      .   S
    C28    O194      0.74140      .   S
    C30    O194      0.74140  1_455   S
    C64    O195      0.70366      .   S
    C63    O195      0.70366      .   S
    C64    O196      0.74184      .   S
    C66    O196      0.74184      .   S
    C27    O197      0.54459      .   S
    C3     O197      0.54459      .   S
    C63    O198      0.54458      .   S
    C21    O198      0.54458      .   S
    C30    O199      0.63963      .   S
    C76    O199      0.63963      .   S
    C30    O200      0.63865      .   S
    C75    O200      0.63865      .   S
    C66    O201      0.64254      .   S
    C94    O201      0.64254      .   S
    C66    O202      0.63555      .   S
    C93    O202      0.63555      .   S
    C94    O203      1.15415      .   S
    C0     O203      1.15415      .   S
    C75    O204      1.16275      .   S
    C0     O204      1.16275      .   S
    C76    O205      1.17734      .   S
    C0     O205      1.17734      .   S
    C77    O206      1.16888      .   S
    C1     O206      1.16888      .   S
    C79    O207      1.18681      .   S
    C2     O207      1.18681      .   S
    C82    O208      1.17757      .   S
    C0     O208      1.17757  1_556   S
    C84    O209      1.17048      .   S
    C1     O209      1.17048      .   S
    C85    O210      1.18627      .   S
    C2     O210      1.18627  1_545   S
    C87    O211      1.18441      .   S
    C0     O211      1.18441  1_556   S
    C90    O212      1.17734      .   S
    C2     O212      1.17734  1_545   S
    C92    O213      1.16870      .   S
    C1     O213      1.16870      .   S
    C93    O214      1.18515      .   S
    C0     O214      1.18515      .   S
    C95    O215      1.16197      .   S
    C2     O215      1.16197      .   S
    C96    O216      1.17667      .   S
    C2     O216      1.17667      .   S
    C97    O217      1.16918      .   S
    C1     O217      1.16918      .   S
    C98    O218      1.16784      .   S
    C1     O218      1.16784      .   S
