# CIF file generated by openbabel 2.4.90, see http://openbabel.sf.net
data_I
_chemical_name_common ''
_cell_length_a 15.026
_cell_length_b 14.001
_cell_length_c 14.741
_cell_angle_alpha 62.372
_cell_angle_beta 59.451
_cell_angle_gamma 57.636
_space_group_name_H-M_alt 'P 1'
_space_group_name_Hall 'P 1'
loop_
    _symmetry_equiv_pos_as_xyz
    x,y,z
loop_
    _atom_site_label
    _atom_site_type_symbol
    _atom_site_fract_x
    _atom_site_fract_y
    _atom_site_fract_z
    _atom_site_occupancy
    Zr0     Zr   0.95020   0.02653   0.63534   1.000
    Zr1     Zr   0.61243   0.47387   0.86438   1.000
    Zr2     Zr   0.04985   0.97351   0.36450   1.000
    Zr3     Zr   0.38761   0.52616   0.13548   1.000
    Zr4     Zr   0.70529   0.25026   0.74979   1.000
    Zr5     Zr   0.29475   0.74978   0.25006   1.000
    N6      N    0.32369   0.64807   0.61938   1.000
    O7      O    0.17249   0.80532   0.59971   1.000
    O8      O    0.43922   0.57971   0.71966   1.000
    O9      O    0.27848   0.70390   0.48019   1.000
    O10     O    0.47508   0.48525   0.67678   1.000
    N11     N    0.00001   0.00000   0.99992   1.000
    O12     O    0.10899   0.91019   0.11063   1.000
    O13     O    0.89104   0.08983   0.88922   1.000
    O14     O    0.00255   0.99401   0.15779   1.000
    O15     O    0.99748   0.00601   0.84206   1.000
    N16     N    0.00003   0.50001   0.49993   1.000
    O17     O    0.84575   0.49421   0.65771   1.000
    O18     O    0.87012   0.41041   0.61048   1.000
    O19     O    0.12992   0.58962   0.38937   1.000
    O20     O    0.15430   0.50581   0.34216   1.000
    N21     N    0.67636   0.35196   0.38035   1.000
    O22     O    0.56082   0.42032   0.28014   1.000
    O23     O    0.52497   0.51478   0.32302   1.000
    O24     O    0.82756   0.19471   0.40008   1.000
    O25     O    0.72157   0.29613   0.51937   1.000
    N26     N    0.40889   0.14814   0.11809   1.000
    O27     O    0.42233   0.30543   0.09887   1.000
    O28     O    0.26175   0.07947   0.21914   1.000
    O29     O    0.36303   0.98505   0.17620   1.000
    O30     O    0.53741   0.20411   0.97947   1.000
    N31     N    0.59116   0.85190   0.88085   1.000
    O32     O    0.57772   0.69460   0.90053   1.000
    O33     O    0.73831   0.92057   0.78024   1.000
    O34     O    0.46264   0.79592   0.01993   1.000
    O35     O    0.63702   0.01499   0.82319   1.000
    O36     O    0.20733   0.77595   0.52040   1.000
    O37     O    0.79273   0.22409   0.47928   1.000
    O38     O    0.50369   0.72385   0.97979   1.000
    O39     O    0.49637   0.27619   0.01960   1.000
loop_
    _geom_bond_atom_site_label_1
    _geom_bond_atom_site_label_2
    _geom_bond_distance
    _geom_bond_site_symmetry_2
    _ccdc_geom_bond_type
    N6     O7        2.19443      .   S
    Zr0    O7        3.11040  1_645   S
    N6     O8        2.37327      .   S
    Zr1    O8        3.47906      .   S
    N6     O9        2.15483      .   S
    Zr5    O9        3.04710      .   S
    N6     O10       2.38810      .   S
    Zr4    O10       3.50219      .   S
    N11    O12       2.35261  1_546   S
    Zr5    O12       3.44946      .   S
    N11    O13       2.35243  1_455   S
    Zr4    O13       3.44931      .   S
    N11    O14       2.30857  1_546   S
    Zr2    O14       3.32330      .   S
    N11    O15       2.30836  1_455   S
    Zr0    O15       3.32316      .   S
    N16    O17       2.30984  1_455   S
    Zr1    O17       3.32564      .   S
    N16    O18       2.35189  1_455   S
    Zr4    O18       3.44731      .   S
    N16    O19       2.35192      .   S
    Zr5    O19       3.44736      .   S
    N16    O20       2.30984      .   S
    Zr3    O20       3.32567      .   S
    N21    O22       2.37258      .   S
    Zr3    O22       3.47833      .   S
    N21    O23       2.38778      .   S
    Zr5    O23       3.50192      .   S
    N21    O24       2.19460      .   S
    Zr2    O24       3.11034  1_465   S
    N21    O25       2.15249      .   S
    Zr4    O25       3.05111      .   S
    N26    O27       2.19323      .   S
    Zr3    O27       3.10629      .   S
    N26    O28       2.37304      .   S
    Zr2    O28       3.47905  1_565   S
    N26    O29       2.38613  1_545   S
    Zr5    O29       3.49917      .   S
    N26    O30       2.15462  1_554   S
    Zr4    O30       3.04596      .   S
    N31    O32       2.19068      .   S
    Zr1    O32       3.10259      .   S
    N31    O33       2.37328      .   S
    Zr0    O33       3.47937  1_545   S
    N31    O34       2.15683  1_556   S
    Zr5    O34       3.04997      .   S
    N31    O35       2.38766  1_565   S
    Zr4    O35       3.50097      .   S
    Zr2    O36       3.34018      .   S
    N6     O36       2.28271      .   S
    Zr0    O37       3.34177      .   S
    N21    O37       2.28216      .   S
    Zr3    O38       3.34324  1_554   S
    N31    O38       2.28427      .   S
    Zr1    O39       3.34294  1_556   S
    N26    O39       2.28437      .   S
