# CIF file generated by openbabel 2.4.90, see http://openbabel.sf.net
data_I
_chemical_name_common ''
_cell_length_a 15.503
_cell_length_b 15.666
_cell_length_c 18.559
_cell_angle_alpha 90.008
_cell_angle_beta 90
_cell_angle_gamma 89.962
_space_group_name_H-M_alt 'P 1'
_space_group_name_Hall 'P 1'
loop_
    _symmetry_equiv_pos_as_xyz
    x,y,z
loop_
    _atom_site_label
    _atom_site_type_symbol
    _atom_site_fract_x
    _atom_site_fract_y
    _atom_site_fract_z
    _atom_site_occupancy
    C0      C    0.79643   0.86257   0.59402   1.000
    C1      C    0.48922   0.66328   0.68600   1.000
    C2      C    0.70355   0.13744   0.09401   1.000
    C3      C    0.01078   0.33674   0.18687   1.000
    C4      C    0.20348   0.36247   0.90593   1.000
    C5      C    0.51084   0.16315   0.81310   1.000
    C6      C    0.29656   0.63760   0.40593   1.000
    C7      C    0.98914   0.83686   0.31312   1.000
    C8      C    0.20356   0.13746   0.40595   1.000
    C9      C    0.51076   0.33675   0.31307   1.000
    C10     C    0.29643   0.86259   0.90596   1.000
    C11     C    0.98920   0.66328   0.81310   1.000
    C12     C    0.79651   0.63756   0.09404   1.000
    C13     C    0.48914   0.83688   0.18687   1.000
    C14     C    0.70343   0.36243   0.59404   1.000
    C15     C    0.01084   0.16316   0.68685   1.000
    C16     C    0.68438   0.71477   0.66154   1.000
    C17     C    0.60221   0.94991   0.57489   1.000
    C18     C    0.45938   0.85746   0.61924   1.000
    C19     C    0.95007   0.81808   0.48523   1.000
    C20     C    0.70943   0.93456   0.44575   1.000
    C21     C    0.79933   0.91982   0.31687   1.000
    C22     C    0.93737   0.01514   0.58446   1.000
    C23     C    0.76397   0.94861   0.75000   1.000
    C24     C    0.87132   0.07909   0.79800   1.000
    C25     C    0.92522   0.82372   0.72292   1.000
    C26     C    0.90906   0.56129   0.67420   1.000
    C27     C    0.81969   0.65372   0.57067   1.000
    C28     C    0.81565   0.28527   0.16148   1.000
    C29     C    0.89777   0.05003   0.07491   1.000
    C30     C    0.04062   0.14249   0.11923   1.000
    C31     C    0.54988   0.18179   0.98522   1.000
    C32     C    0.79063   0.06554   0.94500   1.000
    C33     C    0.70074   0.08029   0.81680   1.000
    C34     C    0.56267   0.98484   0.08447   1.000
    C35     C    0.73597   0.05151   0.25000   1.000
    C36     C    0.62864   0.92102   0.29805   1.000
    C37     C    0.57472   0.17631   0.22286   1.000
    C38     C    0.59092   0.43873   0.17419   1.000
    C39     C    0.68032   0.34629   0.07066   1.000
    C40     C    0.31573   0.21455   0.83859   1.000
    C41     C    0.39752   0.44987   0.92500   1.000
    C42     C    0.54050   0.35738   0.88071   1.000
    C43     C    0.04986   0.31781   0.01472   1.000
    C44     C    0.29020   0.43461   0.05416   1.000
    C45     C    0.20035   0.41985   0.18305   1.000
    C46     C    0.06245   0.51508   0.91520   1.000
    C47     C    0.23629   0.44854   0.74999   1.000
    C48     C    0.12913   0.57931   0.70198   1.000
    C49     C    0.07468   0.32360   0.77702   1.000
    C50     C    0.09119   0.06117   0.82571   1.000
    C51     C    0.18051   0.15359   0.92921   1.000
    C52     C    0.18430   0.78554   0.33800   1.000
    C53     C    0.10261   0.55021   0.42499   1.000
    C54     C    0.95959   0.64262   0.38060   1.000
    C55     C    0.45026   0.68209   0.51472   1.000
    C56     C    0.20975   0.56563   0.55415   1.000
    C57     C    0.29960   0.58038   0.68305   1.000
    C58     C    0.43753   0.48496   0.41526   1.000
    C59     C    0.26383   0.55163   0.24992   1.000
    C60     C    0.37093   0.42079   0.20191   1.000
    C61     C    0.42549   0.67647   0.27710   1.000
    C62     C    0.40878   0.93891   0.32575   1.000
    C63     C    0.31956   0.84647   0.42920   1.000
    C64     C    0.31561   0.28526   0.33842   1.000
    C65     C    0.39778   0.05011   0.42507   1.000
    C66     C    0.54061   0.14256   0.38072   1.000
    C67     C    0.04992   0.18194   0.51473   1.000
    C68     C    0.29057   0.06546   0.55420   1.000
    C69     C    0.20067   0.08020   0.68300   1.000
    C70     C    0.06263   0.98489   0.41550   1.000
    C71     C    0.23602   0.05142   0.24996   1.000
    C72     C    0.12867   0.92093   0.20196   1.000
    C73     C    0.07477   0.17630   0.27704   1.000
    C74     C    0.09093   0.43873   0.32576   1.000
    C75     C    0.18030   0.34630   0.42900   1.000
    C76     C    0.18434   0.71475   0.83848   1.000
    C77     C    0.10222   0.94999   0.92505   1.000
    C78     C    0.95937   0.85753   0.88073   1.000
    C79     C    0.45011   0.81824   0.01474   1.000
    C80     C    0.20936   0.93449   0.05427   1.000
    C81     C    0.29925   0.91974   0.18315   1.000
    C82     C    0.43732   0.01518   0.91549   1.000
    C83     C    0.26402   0.94851   0.74990   1.000
    C84     C    0.37135   0.07900   0.70191   1.000
    C85     C    0.42528   0.82371   0.77710   1.000
    C86     C    0.40907   0.56129   0.82578   1.000
    C87     C    0.31967   0.65374   0.92930   1.000
    C88     C    0.68426   0.78548   0.16137   1.000
    C89     C    0.60248   0.55015   0.07490   1.000
    C90     C    0.45949   0.64264   0.11925   1.000
    C91     C    0.95013   0.68221   0.98524   1.000
    C92     C    0.70978   0.56543   0.94580   1.000
    C93     C    0.79964   0.58019   0.81691   1.000
    C94     C    0.93754   0.48494   0.08468   1.000
    C95     C    0.76370   0.55149   0.24997   1.000
    C96     C    0.87086   0.42071   0.29798   1.000
    C97     C    0.92532   0.67643   0.22294   1.000
    C98     C    0.90881   0.93885   0.17426   1.000
    C99     C    0.81948   0.84643   0.07075   1.000
    C100    C    0.81569   0.21448   0.66137   1.000
    C101    C    0.89738   0.44981   0.57490   1.000
    C102    C    0.04041   0.35741   0.61929   1.000
    C103    C    0.54974   0.31793   0.48524   1.000
    C104    C    0.79023   0.43441   0.44582   1.000
    C105    C    0.70039   0.41966   0.31691   1.000
    C106    C    0.56246   0.51506   0.58470   1.000
    C107    C    0.73616   0.44840   0.75000   1.000
    C108    C    0.62906   0.57923   0.79806   1.000
    C109    C    0.57450   0.32355   0.72286   1.000
    C110    C    0.59121   0.06111   0.67421   1.000
    C111    C    0.68043   0.15355   0.57068   1.000
    C112    C    0.64257   0.76634   0.64410   1.000
    C113    C    0.59839   0.88729   0.59960   1.000
    C114    C    0.52740   0.84144   0.62165   1.000
    C115    C    0.89728   0.84904   0.45704   1.000
    C116    C    0.77324   0.90913   0.43503   1.000
    C117    C    0.81777   0.90204   0.37118   1.000
    C118    C    0.90461   0.01485   0.63614   1.000
    C119    C    0.81594   0.98187   0.72276   1.000
    C120    C    0.86920   0.04625   0.74658   1.000
    C121    C    0.90884   0.76475   0.69548   1.000
    C122    C    0.89942   0.62960   0.66893   1.000
    C123    C    0.85509   0.67548   0.61762   1.000
    C124    C    0.85745   0.23367   0.14405   1.000
    C125    C    0.90160   0.11268   0.09900   1.000
    C126    C    0.97260   0.15853   0.12160   1.000
    C127    C    0.60270   0.15089   0.95700   1.000
    C128    C    0.72680   0.09092   0.93499   1.000
    C129    C    0.68227   0.09802   0.87114   1.000
    C130    C    0.59540   0.98516   0.13616   1.000
    C131    C    0.68403   0.01821   0.22281   1.000
    C132    C    0.63077   0.95383   0.24662   1.000
    C133    C    0.59111   0.23527   0.19544   1.000
    C134    C    0.60056   0.37043   0.16891   1.000
    C135    C    0.64490   0.32454   0.11760   1.000
    C136    C    0.35746   0.26617   0.85598   1.000
    C137    C    0.40144   0.38720   0.90036   1.000
    C138    C    0.47250   0.34134   0.87833   1.000
    C139    C    0.10257   0.34886   0.04290   1.000
    C140    C    0.22646   0.40911   0.06489   1.000
    C141    C    0.18196   0.40201   0.12874   1.000
    C142    C    0.09536   0.51484   0.86368   1.000
    C143    C    0.18425   0.48184   0.77718   1.000
    C144    C    0.13109   0.54638   0.75336   1.000
    C145    C    0.09114   0.26463   0.80445   1.000
    C146    C    0.10074   0.12948   0.83098   1.000
    C147    C    0.14505   0.17535   0.88228   1.000
    C148    C    0.14260   0.73391   0.35598   1.000
    C149    C    0.09865   0.61286   0.40035   1.000
    C150    C    0.02758   0.65869   0.37830   1.000
    C151    C    0.39750   0.65113   0.54290   1.000
    C152    C    0.27353   0.59105   0.56488   1.000
    C153    C    0.31802   0.59815   0.62874   1.000
    C154    C    0.40466   0.48522   0.36364   1.000
    C155    C    0.31582   0.51828   0.27712   1.000
    C156    C    0.36897   0.45372   0.25330   1.000
    C157    C    0.40898   0.73544   0.30452   1.000
    C158    C    0.39928   0.87060   0.33104   1.000
    C159    C    0.35501   0.82472   0.38234   1.000
    C160    C    0.35742   0.23368   0.35580   1.000
    C161    C    0.40160   0.11273   0.40037   1.000
    C162    C    0.47259   0.15858   0.37831   1.000
    C163    C    0.10271   0.15098   0.54293   1.000
    C164    C    0.22676   0.09090   0.56490   1.000
    C165    C    0.18223   0.09798   0.62878   1.000
    C166    C    0.09538   0.98517   0.36380   1.000
    C167    C    0.18405   0.01815   0.27720   1.000
    C168    C    0.13079   0.95377   0.25338   1.000
    C169    C    0.09115   0.23527   0.30448   1.000
    C170    C    0.10057   0.37043   0.33103   1.000
    C171    C    0.14491   0.32455   0.38234   1.000
    C172    C    0.14254   0.76635   0.85591   1.000
    C173    C    0.09839   0.88735   0.90037   1.000
    C174    C    0.02739   0.84149   0.87833   1.000
    C175    C    0.39729   0.84913   0.04295   1.000
    C176    C    0.27319   0.90910   0.06498   1.000
    C177    C    0.31772   0.90201   0.12882   1.000
    C178    C    0.40459   0.01486   0.86380   1.000
    C179    C    0.31596   0.98181   0.77716   1.000
    C180    C    0.36922   0.04619   0.75335   1.000
    C181    C    0.40888   0.76475   0.80450   1.000
    C182    C    0.39943   0.62959   0.83105   1.000
    C183    C    0.35509   0.67548   0.88236   1.000
    C184    C    0.64253   0.73385   0.14398   1.000
    C185    C    0.59854   0.61282   0.09960   1.000
    C186    C    0.52749   0.65868   0.12160   1.000
    C187    C    0.89742   0.65117   0.95706   1.000
    C188    C    0.77353   0.59093   0.93507   1.000
    C189    C    0.81803   0.59802   0.87122   1.000
    C190    C    0.90463   0.48518   0.13628   1.000
    C191    C    0.81574   0.51818   0.22278   1.000
    C192    C    0.86890   0.45364   0.24660   1.000
    C193    C    0.90885   0.73539   0.19551   1.000
    C194    C    0.89925   0.87055   0.16898   1.000
    C195    C    0.85494   0.82467   0.11769   1.000
    C196    C    0.85739   0.26612   0.64390   1.000
    C197    C    0.90134   0.38716   0.59962   1.000
    C198    C    0.97241   0.34133   0.62166   1.000
    C199    C    0.60249   0.34889   0.45706   1.000
    C200    C    0.72646   0.40898   0.43508   1.000
    C201    C    0.68197   0.40188   0.37120   1.000
    C202    C    0.59533   0.51480   0.63632   1.000
    C203    C    0.68417   0.48174   0.72284   1.000
    C204    C    0.63102   0.54630   0.74666   1.000
    C205    C    0.59102   0.26458   0.69544   1.000
    C206    C    0.60071   0.12942   0.66893   1.000
    C207    C    0.64498   0.17531   0.61762   1.000
    C208    C    0.55587   0.76458   0.64987   1.000
    C209    C    0.67150   0.83931   0.61390   1.000
    C210    C    0.89650   0.86391   0.38545   1.000
    C211    C    0.82396   0.87540   0.48949   1.000
    C212    C    0.92548   0.06696   0.69134   1.000
    C213    C    0.83864   0.96224   0.65249   1.000
    C214    C    0.93364   0.68671   0.71823   1.000
    C215    C    0.86122   0.76138   0.63474   1.000
    C216    C    0.94416   0.23542   0.14983   1.000
    C217    C    0.82851   0.16069   0.11393   1.000
    C218    C    0.60350   0.13607   0.88542   1.000
    C219    C    0.67603   0.12456   0.98946   1.000
    C220    C    0.57453   0.93308   0.19136   1.000
    C221    C    0.66136   0.03780   0.15252   1.000
    C222    C    0.56632   0.31332   0.21819   1.000
    C223    C    0.63875   0.23864   0.13470   1.000
    C224    C    0.44416   0.26443   0.85019   1.000
    C225    C    0.32842   0.33917   0.88600   1.000
    C226    C    0.10332   0.36377   0.11449   1.000
    C227    C    0.17582   0.37529   0.01045   1.000
    C228    C    0.07466   0.56708   0.80852   1.000
    C229    C    0.16135   0.46212   0.84739   1.000
    C230    C    0.06641   0.18659   0.78171   1.000
    C231    C    0.13881   0.26126   0.86517   1.000
    C232    C    0.05589   0.73561   0.35017   1.000
    C233    C    0.17165   0.66093   0.38606   1.000
    C234    C    0.39671   0.63627   0.61449   1.000
    C235    C    0.32422   0.62476   0.51043   1.000
    C236    C    0.42535   0.43298   0.30848   1.000
    C237    C    0.33869   0.53797   0.34734   1.000
    C238    C    0.43364   0.81348   0.28177   1.000
    C239    C    0.36131   0.73881   0.36525   1.000
    C240    C    0.44413   0.23544   0.35009   1.000
    C241    C    0.32849   0.16071   0.38601   1.000
    C242    C    0.10349   0.13611   0.61451   1.000
    C243    C    0.17603   0.12462   0.51048   1.000
    C244    C    0.07451   0.93306   0.30860   1.000
    C245    C    0.16135   0.03779   0.34748   1.000
    C246    C    0.06635   0.31331   0.28173   1.000
    C247    C    0.13877   0.23864   0.36522   1.000
    C248    C    0.05583   0.76460   0.85010   1.000
    C249    C    0.17149   0.83933   0.88603   1.000
    C250    C    0.39649   0.86395   0.11455   1.000
    C251    C    0.32396   0.87546   0.01050   1.000
    C252    C    0.42546   0.06694   0.80860   1.000
    C253    C    0.33863   0.96222   0.84744   1.000
    C254    C    0.43367   0.68671   0.78178   1.000
    C255    C    0.36124   0.76138   0.86526   1.000
    C256    C    0.55583   0.73560   0.14978   1.000
    C257    C    0.67156   0.66085   0.11390   1.000
    C258    C    0.89667   0.63625   0.88540   1.000
    C259    C    0.82417   0.62474   0.98952   1.000
    C260    C    0.92533   0.43295   0.19144   1.000
    C261    C    0.83864   0.53790   0.15258   1.000
    C262    C    0.93358   0.81343   0.21825   1.000
    C263    C    0.86118   0.73877   0.13479   1.000
    C264    C    0.94410   0.26441   0.64979   1.000
    C265    C    0.82834   0.33909   0.61390   1.000
    C266    C    0.60328   0.36375   0.38547   1.000
    C267    C    0.67577   0.37526   0.48953   1.000
    C268    C    0.57464   0.56704   0.69149   1.000
    C269    C    0.66130   0.46205   0.65262   1.000
    C270    C    0.56635   0.18654   0.71820   1.000
    C271    C    0.63868   0.26121   0.63471   1.000
    O272    O    0.13919   0.36207   0.02668   1.000
    O273    O    0.20114   0.39220   0.03767   1.000
    O274    O    0.18965   0.36888   0.95819   1.000
    O275    O    0.36063   0.86230   0.02673   1.000
    O276    O    0.29858   0.89228   0.03774   1.000
    O277    O    0.31020   0.86902   0.95823   1.000
    O278    O    0.07621   0.33333   0.02881   1.000
    O279    O    0.42370   0.83369   0.02884   1.000
    O280    O    0.10294   0.35631   0.07870   1.000
    O281    O    0.39689   0.85654   0.07875   1.000
    O282    O    0.25833   0.42186   0.05953   1.000
    O283    O    0.24128   0.92180   0.05963   1.000
    O284    O    0.20421   0.40556   0.09682   1.000
    O285    O    0.29546   0.90556   0.09690   1.000
    O286    O    0.66261   0.33541   0.09413   1.000
    O287    O    0.83721   0.83555   0.09422   1.000
    O288    O    0.60051   0.58148   0.08725   1.000
    O289    O    0.89968   0.08135   0.08696   1.000
    O290    O    0.57904   0.98500   0.11032   1.000
    O291    O    0.92109   0.48506   0.11048   1.000
    O292    O    0.76603   0.14906   0.10397   1.000
    O293    O    0.67115   0.18804   0.11435   1.000
    O294    O    0.68246   0.08762   0.12326   1.000
    O295    O    0.68979   0.13100   0.04173   1.000
    O296    O    0.73404   0.64921   0.10397   1.000
    O297    O    0.82884   0.68816   0.11442   1.000
    O298    O    0.81757   0.58773   0.12331   1.000
    O299    O    0.81034   0.63115   0.04178   1.000
    O300    O    0.86505   0.13668   0.10647   1.000
    O301    O    0.93710   0.13560   0.11030   1.000
    O302    O    0.63505   0.63684   0.10675   1.000
    O303    O    0.56302   0.63575   0.11060   1.000
    O304    O    0.65705   0.69735   0.12894   1.000
    O305    O    0.84298   0.19718   0.12899   1.000
    O306    O    0.14264   0.38289   0.12162   1.000
    O307    O    0.05705   0.35026   0.15068   1.000
    O308    O    0.35710   0.88298   0.12169   1.000
    O309    O    0.44282   0.85041   0.15071   1.000
    O310    O    0.64183   0.28159   0.12615   1.000
    O311    O    0.62273   0.34748   0.14326   1.000
    O312    O    0.85806   0.78172   0.12624   1.000
    O313    O    0.87709   0.84761   0.14333   1.000
    O314    O    0.00661   0.15051   0.12041   1.000
    O315    O    0.49349   0.65066   0.12042   1.000
    O316    O    0.95838   0.19698   0.13572   1.000
    O317    O    0.54166   0.69714   0.13569   1.000
    O318    O    0.19115   0.41093   0.15590   1.000
    O319    O    0.30849   0.91087   0.15599   1.000
    O320    O    0.61493   0.23696   0.16507   1.000
    O321    O    0.88502   0.73708   0.16515   1.000
    O322    O    0.62838   0.01148   0.14434   1.000
    O323    O    0.58497   0.95912   0.16376   1.000
    O324    O    0.87164   0.51154   0.14443   1.000
    O325    O    0.91498   0.45907   0.16386   1.000
    O326    O    0.59918   0.73473   0.14688   1.000
    O327    O    0.66340   0.75967   0.15268   1.000
    O328    O    0.90080   0.23454   0.14694   1.000
    O329    O    0.83655   0.25947   0.15277   1.000
    O330    O    0.52249   0.78624   0.16833   1.000
    O331    O    0.97747   0.28608   0.16835   1.000
    O332    O    0.67269   0.02801   0.18766   1.000
    O333    O    0.82719   0.52804   0.18768   1.000
    O334    O    0.59574   0.40458   0.17155   1.000
    O335    O    0.58344   0.34187   0.19355   1.000
    O336    O    0.90403   0.90470   0.17162   1.000
    O337    O    0.91642   0.84199   0.19362   1.000
    O338    O    0.96806   0.38484   0.18915   1.000
    O339    O    0.03857   0.32502   0.23430   1.000
    O340    O    0.53184   0.88498   0.18912   1.000
    O341    O    0.46139   0.82518   0.23432   1.000
    O342    O    0.60265   0.94345   0.21899   1.000
    O343    O    0.89712   0.44330   0.21902   1.000
    O344    O    0.57872   0.27430   0.20682   1.000
    O345    O    0.58291   0.20579   0.20915   1.000
    O346    O    0.92122   0.77441   0.20688   1.000
    O347    O    0.91708   0.70591   0.20923   1.000
    O348    O    0.36995   0.43726   0.22761   1.000
    O349    O    0.12973   0.93735   0.22767   1.000
    O350    O    0.53854   0.32503   0.26563   1.000
    O351    O    0.96136   0.82515   0.26569   1.000
    O352    O    0.84232   0.48591   0.23469   1.000
    O353    O    0.78972   0.53483   0.23638   1.000
    O354    O    0.65740   0.98602   0.23472   1.000
    O355    O    0.71000   0.03486   0.23641   1.000
    O356    O    0.86988   0.43718   0.27229   1.000
    O357    O    0.62971   0.93742   0.27234   1.000
    O358    O    0.28982   0.53495   0.26352   1.000
    O359    O    0.21003   0.03478   0.26358   1.000
    O360    O    0.34239   0.48600   0.26521   1.000
    O361    O    0.39716   0.44335   0.28089   1.000
    O362    O    0.15742   0.98596   0.26529   1.000
    O363    O    0.10265   0.94342   0.28099   1.000
    O364    O    0.08296   0.20578   0.29076   1.000
    O365    O    0.41723   0.70596   0.29081   1.000
    O366    O    0.32726   0.52813   0.31223   1.000
    O367    O    0.17270   0.02797   0.31234   1.000
    O368    O    0.07875   0.27429   0.29311   1.000
    O369    O    0.08346   0.34187   0.30638   1.000
    O370    O    0.42131   0.77446   0.29315   1.000
    O371    O    0.41646   0.84204   0.30641   1.000
    O372    O    0.11496   0.23696   0.33485   1.000
    O373    O    0.38514   0.73712   0.33489   1.000
    O374    O    0.46806   0.38486   0.31078   1.000
    O375    O    0.41500   0.45910   0.33606   1.000
    O376    O    0.03183   0.88496   0.31086   1.000
    O377    O    0.08495   0.95912   0.33620   1.000
    O378    O    0.47744   0.28610   0.33158   1.000
    O379    O    0.55702   0.35025   0.34927   1.000
    O380    O    0.02252   0.78624   0.33165   1.000
    O381    O    0.94282   0.85039   0.34929   1.000
    O382    O    0.80855   0.91093   0.34403   1.000
    O383    O    0.69118   0.41077   0.34405   1.000
    O384    O    0.40403   0.90476   0.32839   1.000
    O385    O    0.09575   0.40458   0.32839   1.000
    O386    O    0.12274   0.34749   0.35669   1.000
    O387    O    0.37715   0.84766   0.35669   1.000
    O388    O    0.16345   0.75972   0.34699   1.000
    O389    O    0.33651   0.25947   0.34711   1.000
    O390    O    0.37167   0.51160   0.35549   1.000
    O391    O    0.31763   0.58778   0.37664   1.000
    O392    O    0.12837   0.01148   0.35564   1.000
    O393    O    0.18246   0.08762   0.37672   1.000
    O394    O    0.40077   0.23456   0.35295   1.000
    O395    O    0.45836   0.19701   0.36420   1.000
    O396    O    0.09924   0.73476   0.35308   1.000
    O397    O    0.04173   0.69715   0.36424   1.000
    O398    O    0.34296   0.19720   0.37091   1.000
    O399    O    0.15712   0.69742   0.37102   1.000
    O400    O    0.42109   0.48509   0.38945   1.000
    O401    O    0.07900   0.98503   0.38965   1.000
    O402    O    0.14184   0.28159   0.37378   1.000
    O403    O    0.17116   0.18805   0.38559   1.000
    O404    O    0.35816   0.78176   0.37380   1.000
    O405    O    0.32894   0.68820   0.38559   1.000
    O406    O    0.85713   0.88297   0.37832   1.000
    O407    O    0.79550   0.90558   0.40310   1.000
    O408    O    0.64262   0.38282   0.37834   1.000
    O409    O    0.70421   0.40543   0.40314   1.000
    O410    O    0.99358   0.65065   0.37945   1.000
    O411    O    0.06311   0.63578   0.38932   1.000
    O412    O    0.50660   0.15057   0.37951   1.000
    O413    O    0.43709   0.13566   0.38934   1.000
    O414    O    0.33729   0.83560   0.40577   1.000
    O415    O    0.16260   0.33542   0.40567   1.000
    O416    O    0.89689   0.85647   0.42125   1.000
    O417    O    0.60289   0.35632   0.42127   1.000
    O418    O    0.36505   0.13672   0.39319   1.000
    O419    O    0.26602   0.14909   0.39598   1.000
    O420    O    0.13515   0.63690   0.39321   1.000
    O421    O    0.23411   0.64926   0.39599   1.000
    O422    O    0.10063   0.58154   0.41267   1.000
    O423    O    0.39969   0.08142   0.41272   1.000
    O424    O    0.31039   0.63118   0.45818   1.000
    O425    O    0.18979   0.13104   0.45822   1.000
    O426    O    0.74133   0.92184   0.44039   1.000
    O427    O    0.79860   0.89226   0.46226   1.000
    O428    O    0.75834   0.42169   0.44045   1.000
    O429    O    0.70111   0.39212   0.46231   1.000
    O430    O    0.92367   0.83356   0.47114   1.000
    O431    O    0.86062   0.86222   0.47326   1.000
    O432    O    0.57612   0.33341   0.47115   1.000
    O433    O    0.63913   0.36208   0.47330   1.000
    O434    O    0.81020   0.86898   0.54175   1.000
    O435    O    0.68960   0.36885   0.54179   1.000
    O436    O    0.36086   0.63795   0.52667   1.000
    O437    O    0.29888   0.60791   0.53766   1.000
    O438    O    0.13937   0.13780   0.52670   1.000
    O439    O    0.20139   0.10776   0.53769   1.000
    O440    O    0.42388   0.66661   0.52881   1.000
    O441    O    0.07632   0.16646   0.52883   1.000
    O442    O    0.39710   0.64370   0.57870   1.000
    O443    O    0.10310   0.14355   0.57872   1.000
    O444    O    0.24164   0.57834   0.55952   1.000
    O445    O    0.25866   0.07818   0.55955   1.000
    O446    O    0.29577   0.59460   0.59681   1.000
    O447    O    0.20449   0.09444   0.59684   1.000
    O448    O    0.83739   0.66460   0.59415   1.000
    O449    O    0.66270   0.16443   0.59415   1.000
    O450    O    0.60030   0.91860   0.58725   1.000
    O451    O    0.89936   0.41848   0.58726   1.000
    O452    O    0.92099   0.01499   0.61030   1.000
    O453    O    0.57890   0.51493   0.61051   1.000
    O454    O    0.73396   0.85094   0.60396   1.000
    O455    O    0.82883   0.81197   0.61438   1.000
    O456    O    0.81753   0.91240   0.62326   1.000
    O457    O    0.76588   0.35076   0.60397   1.000
    O458    O    0.67105   0.31182   0.61438   1.000
    O459    O    0.68236   0.41224   0.62333   1.000
    O460    O    0.63494   0.86330   0.60675   1.000
    O461    O    0.56290   0.86437   0.61063   1.000
    O462    O    0.86484   0.36313   0.60676   1.000
    O463    O    0.93688   0.36424   0.61064   1.000
    O464    O    0.65703   0.80283   0.62900   1.000
    O465    O    0.84287   0.30261   0.62890   1.000
    O466    O    0.35737   0.61721   0.62162   1.000
    O467    O    0.44297   0.64978   0.65024   1.000
    O468    O    0.14286   0.11705   0.62165   1.000
    O469    O    0.05717   0.14964   0.65068   1.000
    O470    O    0.85815   0.71843   0.62618   1.000
    O471    O    0.87725   0.65254   0.64328   1.000
    O472    O    0.64183   0.21826   0.62617   1.000
    O473    O    0.62284   0.15236   0.64328   1.000
    O474    O    0.49339   0.84945   0.62045   1.000
    O475    O    0.00641   0.34937   0.62048   1.000
    O476    O    0.54163   0.80301   0.63576   1.000
    O477    O    0.95826   0.30287   0.63572   1.000
    O478    O    0.30881   0.58926   0.65590   1.000
    O479    O    0.19145   0.08909   0.65589   1.000
    O480    O    0.61485   0.26290   0.66507   1.000
    O481    O    0.88503   0.76307   0.66511   1.000
    O482    O    0.87163   0.98854   0.64432   1.000
    O483    O    0.91505   0.04091   0.66374   1.000
    O484    O    0.62832   0.48842   0.64447   1.000
    O485    O    0.58499   0.54092   0.66391   1.000
    O486    O    0.90075   0.26526   0.64685   1.000
    O487    O    0.83654   0.24030   0.65264   1.000
    O488    O    0.59922   0.76546   0.64699   1.000
    O489    O    0.66348   0.74055   0.65282   1.000
    O490    O    0.97747   0.21379   0.66832   1.000
    O491    O    0.52254   0.71393   0.66793   1.000
    O492    O    0.82729   0.97205   0.68763   1.000
    O493    O    0.67273   0.47190   0.68773   1.000
    O494    O    0.90424   0.59544   0.67157   1.000
    O495    O    0.91653   0.65816   0.69358   1.000
    O496    O    0.59596   0.09527   0.67157   1.000
    O497    O    0.58353   0.15798   0.69357   1.000
    O498    O    0.53193   0.61516   0.68875   1.000
    O499    O    0.46145   0.67499   0.73389   1.000
    O500    O    0.96816   0.11506   0.68910   1.000
    O501    O    0.03863   0.17488   0.73428   1.000
    O502    O    0.89734   0.05661   0.71896   1.000
    O503    O    0.60283   0.55667   0.71908   1.000
    O504    O    0.57868   0.22556   0.70682   1.000
    O505    O    0.58276   0.29407   0.70915   1.000
    O506    O    0.92124   0.72573   0.70686   1.000
    O507    O    0.91703   0.79424   0.70920   1.000
    O508    O    0.37028   0.06260   0.72763   1.000
    O509    O    0.13011   0.56284   0.72767   1.000
    O510    O    0.53860   0.17484   0.76565   1.000
    O511    O    0.96142   0.67500   0.76567   1.000
    O512    O    0.84257   0.01406   0.73467   1.000
    O513    O    0.78996   0.96524   0.73638   1.000
    O514    O    0.65760   0.51402   0.73475   1.000
    O515    O    0.71017   0.46507   0.73642   1.000
    O516    O    0.87026   0.06267   0.77229   1.000
    O517    O    0.63004   0.56276   0.77236   1.000
    O518    O    0.28999   0.96516   0.76353   1.000
    O519    O    0.21027   0.46519   0.76359   1.000
    O520    O    0.34259   0.01400   0.76526   1.000
    O521    O    0.39734   0.05657   0.78098   1.000
    O522    O    0.15767   0.51411   0.76527   1.000
    O523    O    0.10287   0.55673   0.78094   1.000
    O524    O    0.08291   0.29411   0.79074   1.000
    O525    O    0.41708   0.79423   0.79080   1.000
    O526    O    0.32730   0.97201   0.81230   1.000
    O527    O    0.17280   0.47198   0.81229   1.000
    O528    O    0.07877   0.22561   0.79308   1.000
    O529    O    0.08357   0.15803   0.80635   1.000
    O530    O    0.42128   0.72573   0.79314   1.000
    O531    O    0.41655   0.65815   0.80641   1.000
    O532    O    0.11497   0.26294   0.83481   1.000
    O533    O    0.38506   0.76307   0.83488   1.000
    O534    O    0.03193   0.61518   0.81081   1.000
    O535    O    0.08501   0.54096   0.83610   1.000
    O536    O    0.46815   0.11505   0.81085   1.000
    O537    O    0.41502   0.04090   0.83620   1.000
    O538    O    0.47750   0.21379   0.83165   1.000
    O539    O    0.55717   0.14961   0.84926   1.000
    O540    O    0.02252   0.71394   0.83160   1.000
    O541    O    0.94294   0.64977   0.84925   1.000
    O542    O    0.69151   0.08915   0.84397   1.000
    O543    O    0.80883   0.58910   0.84407   1.000
    O544    O    0.09596   0.09532   0.82835   1.000
    O545    O    0.40425   0.59544   0.82842   1.000
    O546    O    0.12290   0.15241   0.85663   1.000
    O547    O    0.37726   0.65254   0.85671   1.000
    O548    O    0.16344   0.74055   0.84720   1.000
    O549    O    0.33659   0.24036   0.84729   1.000
    O550    O    0.12836   0.48848   0.85554   1.000
    O551    O    0.18242   0.41229   0.87666   1.000
    O552    O    0.37161   0.98854   0.85562   1.000
    O553    O    0.31753   0.91240   0.87670   1.000
    O554    O    0.09919   0.76548   0.85301   1.000
    O555    O    0.04161   0.80305   0.86422   1.000
    O556    O    0.40081   0.26530   0.85308   1.000
    O557    O    0.45833   0.30288   0.86426   1.000
    O558    O    0.15701   0.80284   0.87097   1.000
    O559    O    0.34294   0.30267   0.87099   1.000
    O560    O    0.07891   0.51496   0.88944   1.000
    O561    O    0.42095   0.01502   0.88965   1.000
    O562    O    0.14193   0.21830   0.87372   1.000
    O563    O    0.17114   0.31186   0.88555   1.000
    O564    O    0.35816   0.71843   0.87381   1.000
    O565    O    0.32883   0.81199   0.88561   1.000
    O566    O    0.64289   0.11704   0.87828   1.000
    O567    O    0.70453   0.09447   0.90306   1.000
    O568    O    0.85735   0.61714   0.87831   1.000
    O569    O    0.79578   0.59447   0.90314   1.000
    O570    O    0.50650   0.34936   0.87952   1.000
    O571    O    0.43697   0.36427   0.88935   1.000
    O572    O    0.99338   0.84951   0.87953   1.000
    O573    O    0.06289   0.86442   0.88935   1.000
    O574    O    0.16278   0.16447   0.90575   1.000
    O575    O    0.33738   0.66461   0.90583   1.000
    O576    O    0.89704   0.64371   0.92123   1.000
    O577    O    0.60310   0.14348   0.92121   1.000
    O578    O    0.36493   0.36319   0.89318   1.000
    O579    O    0.26595   0.35082   0.89597   1.000
    O580    O    0.13494   0.86334   0.89320   1.000
    O581    O    0.23396   0.85096   0.89600   1.000
    O582    O    0.39948   0.41854   0.91268   1.000
    O583    O    0.10031   0.91867   0.91271   1.000
    O584    O    0.75871   0.07823   0.94000   1.000
    O585    O    0.70142   0.10774   0.96223   1.000
    O586    O    0.74165   0.57818   0.94044   1.000
    O587    O    0.79885   0.60783   0.96230   1.000
    O588    O    0.57629   0.16634   0.97111   1.000
    O589    O    0.63937   0.13772   0.97323   1.000
    O590    O    0.92378   0.66669   0.97115   1.000
    O591    O    0.86079   0.63795   0.97329   1.000
loop_
    _geom_bond_atom_site_label_1
    _geom_bond_atom_site_label_2
    _geom_bond_distance
    _geom_bond_site_symmetry_2
    _ccdc_geom_bond_type
    C227   O272      0.67537      .   S
    C139   O272      0.67537      .   S
    C227   O273      0.69251      .   S
    C140   O273      0.69251      .   S
    C227   O274      0.99834  1_554   S
    C4     O274      0.99834      .   S
    C251   O275      0.67542      .   S
    C175   O275      0.67542      .   S
    C251   O276      0.69260      .   S
    C176   O276      0.69260      .   S
    C251   O277      0.99837  1_554   S
    C10    O277      0.99837      .   S
    C43    O278      0.54275      .   S
    C139   O278      0.54275      .   S
    C79    O279      0.54276      .   S
    C175   O279      0.54276      .   S
    C139   O280      0.67453      .   S
    C226   O280      0.67453      .   S
    C175   O281      0.67448      .   S
    C250   O281      0.67448      .   S
    C44    O282      0.54229      .   S
    C140   O282      0.54229      .   S
    C80    O283      0.54231      .   S
    C176   O283      0.54231      .   S
    C140   O284      0.68789      .   S
    C141   O284      0.68789      .   S
    C176   O285      0.68784      .   S
    C177   O285      0.68784      .   S
    C39    O286      0.54238      .   S
    C135   O286      0.54238      .   S
    C99    O287      0.54247      .   S
    C195   O287      0.54247      .   S
    C89    O288      0.54253      .   S
    C185   O288      0.54253      .   S
    C29    O289      0.54001      .   S
    C125   O289      0.54001      .   S
    C34    O290      0.54263      .   S
    C130   O290      0.54263      .   S
    C94    O291      0.54252      .   S
    C190   O291      0.54252      .   S
    C2     O292      1.00283      .   S
    C217   O292      1.00283      .   S
    C2     O293      1.01128      .   S
    C223   O293      1.01128      .   S
    C2     O294      1.00564      .   S
    C221   O294      1.00564      .   S
    C2     O295      0.99845      .   S
    C219   O295      0.99845  1_556   S
    C12    O296      1.00250      .   S
    C257   O296      1.00250      .   S
    C12    O297      1.01155      .   S
    C263   O297      1.01155      .   S
    C12    O298      1.00541      .   S
    C261   O298      1.00541      .   S
    C12    O299      0.99834      .   S
    C259   O299      0.99834  1_556   S
    C125   O300      0.69380      .   S
    C217   O300      0.69380      .   S
    C125   O301      0.69003      .   S
    C126   O301      0.69003      .   S
    C185   O302      0.69270      .   S
    C257   O302      0.69270      .   S
    C185   O303      0.68838      .   S
    C186   O303      0.68838      .   S
    C257   O304      0.67476      .   S
    C184   O304      0.67476      .   S
    C217   O305      0.67481      .   S
    C124   O305      0.67481      .   S
    C226   O306      0.69206      .   S
    C141   O306      0.69206      .   S
    C226   O307      1.00534      .   S
    C3     O307      1.00534      .   S
    C250   O308      0.69207      .   S
    C177   O308      0.69207      .   S
    C250   O309      1.00549      .   S
    C13    O309      1.00549      .   S
    C135   O310      0.69302      .   S
    C223   O310      0.69302      .   S
    C135   O311      0.68836      .   S
    C134   O311      0.68836      .   S
    C195   O312      0.69303      .   S
    C263   O312      0.69303      .   S
    C195   O313      0.68832      .   S
    C194   O313      0.68832      .   S
    C30    O314      0.54240      .   S
    C126   O314      0.54240  1_655   S
    C90    O315      0.54236      .   S
    C186   O315      0.54236      .   S
    C126   O316      0.69265      .   S
    C216   O316      0.69265      .   S
    C186   O317      0.69264      .   S
    C256   O317      0.69264      .   S
    C141   O318      0.54208      .   S
    C45    O318      0.54208      .   S
    C177   O319      0.54213      .   S
    C81    O319      0.54213      .   S
    C223   O320      0.67436      .   S
    C133   O320      0.67436      .   S
    C263   O321      0.67433      .   S
    C193   O321      0.67433      .   S
    C130   O322      0.67434  1_565   S
    C221   O322      0.67434      .   S
    C130   O323      0.67463      .   S
    C220   O323      0.67463      .   S
    C190   O324      0.67440      .   S
    C261   O324      0.67440      .   S
    C190   O325      0.67463      .   S
    C260   O325      0.67463      .   S
    C184   O326      0.67439      .   S
    C256   O326      0.67439      .   S
    C184   O327      0.54249      .   S
    C88    O327      0.54249      .   S
    C124   O328      0.67441      .   S
    C216   O328      0.67441      .   S
    C124   O329      0.54249      .   S
    C28    O329      0.54249      .   S
    C256   O330      1.00716      .   S
    C13    O330      1.00716      .   S
    C216   O331      1.00757      .   S
    C3     O331      1.00757  1_455   S
    C221   O332      0.69271      .   S
    C131   O332      0.69271      .   S
    C261   O333      0.69267      .   S
    C191   O333      0.69267      .   S
    C134   O334      0.54239      .   S
    C38    O334      0.54239      .   S
    C134   O335      0.69275      .   S
    C222   O335      0.69275      .   S
    C194   O336      0.54239      .   S
    C98    O336      0.54239      .   S
    C194   O337      0.69273      .   S
    C262   O337      0.69273      .   S
    C3     O338      1.00389  1_455   S
    C260   O338      1.00389      .   S
    C3     O339      0.99699      .   S
    C246   O339      0.99699      .   S
    C13    O340      1.00413      .   S
    C220   O340      1.00413      .   S
    C13    O341      0.99716      .   S
    C238   O341      0.99716      .   S
    C220   O342      0.69246      .   S
    C132   O342      0.69246      .   S
    C260   O343      0.69244      .   S
    C192   O343      0.69244      .   S
    C133   O344      0.67457      .   S
    C222   O344      0.67457      .   S
    C133   O345      0.54253      .   S
    C37    O345      0.54253      .   S
    C193   O346      0.67458      .   S
    C262   O346      0.67458      .   S
    C193   O347      0.54255      .   S
    C97    O347      0.54255      .   S
    C60    O348      0.54233      .   S
    C156   O348      0.54233      .   S
    C72    O349      0.54228      .   S
    C168   O349      0.54228      .   S
    C222   O350      0.99707      .   S
    C9     O350      0.99707      .   S
    C262   O351      0.99712      .   S
    C7     O351      0.99712      .   S
    C191   O352      0.68847      .   S
    C192   O352      0.68847      .   S
    C191   O353      0.54243      .   S
    C95    O353      0.54243      .   S
    C131   O354      0.68838  1_545   S
    C132   O354      0.68838      .   S
    C131   O355      0.54214      .   S
    C35    O355      0.54214      .   S
    C192   O356      0.54233      .   S
    C96    O356      0.54233      .   S
    C132   O357      0.54232      .   S
    C36    O357      0.54232      .   S
    C59    O358      0.54243      .   S
    C155   O358      0.54243      .   S
    C71    O359      0.54242      .   S
    C167   O359      0.54242      .   S
    C156   O360      0.68847      .   S
    C155   O360      0.68847      .   S
    C156   O361      0.69247      .   S
    C236   O361      0.69247      .   S
    C168   O362      0.68839      .   S
    C167   O362      0.68839  1_545   S
    C168   O363      0.69229      .   S
    C244   O363      0.69229      .   S
    C73    O364      0.54255      .   S
    C169   O364      0.54255      .   S
    C61    O365      0.54255      .   S
    C157   O365      0.54255      .   S
    C155   O366      0.69270      .   S
    C237   O366      0.69270      .   S
    C167   O367      0.69271      .   S
    C245   O367      0.69271      .   S
    C246   O368      0.67458      .   S
    C169   O368      0.67458      .   S
    C246   O369      0.69276      .   S
    C170   O369      0.69276      .   S
    C238   O370      0.67456      .   S
    C157   O370      0.67456      .   S
    C238   O371      0.69276      .   S
    C158   O371      0.69276      .   S
    C169   O372      0.67427      .   S
    C247   O372      0.67427      .   S
    C157   O373      0.67436      .   S
    C239   O373      0.67436      .   S
    C236   O374      1.00388      .   S
    C9     O374      1.00388      .   S
    C236   O375      0.67456      .   S
    C154   O375      0.67456      .   S
    C244   O376      1.00408      .   S
    C7     O376      1.00408  1_655   S
    C244   O377      0.67464      .   S
    C166   O377      0.67464      .   S
    C9     O378      1.00751      .   S
    C240   O378      1.00751      .   S
    C9     O379      1.00527      .   S
    C266   O379      1.00527      .   S
    C7     O380      1.00719  1_655   S
    C232   O380      1.00719      .   S
    C7     O381      1.00542      .   S
    C210   O381      1.00542      .   S
    C21    O382      0.54203      .   S
    C117   O382      0.54203      .   S
    C105   O383      0.54188      .   S
    C201   O383      0.54188      .   S
    C62    O384      0.54239      .   S
    C158   O384      0.54239      .   S
    C74    O385      0.54239      .   S
    C170   O385      0.54239      .   S
    C170   O386      0.68834      .   S
    C171   O386      0.68834      .   S
    C158   O387      0.68830      .   S
    C159   O387      0.68830      .   S
    C52    O388      0.54417      .   S
    C148   O388      0.54417      .   S
    C64    O389      0.54231      .   S
    C160   O389      0.54231      .   S
    C237   O390      0.67436      .   S
    C154   O390      0.67436      .   S
    C237   O391      1.00535      .   S
    C6     O391      1.00535      .   S
    C245   O392      0.67428      .   S
    C166   O392      0.67428  1_565   S
    C245   O393      1.00554      .   S
    C8     O393      1.00554      .   S
    C240   O394      0.67436      .   S
    C160   O394      0.67436      .   S
    C240   O395      0.69253      .   S
    C162   O395      0.69253      .   S
    C232   O396      0.67438      .   S
    C148   O396      0.67438      .   S
    C232   O397      0.69248      .   S
    C150   O397      0.69248      .   S
    C160   O398      0.67506      .   S
    C241   O398      0.67506      .   S
    C148   O399      0.67474      .   S
    C233   O399      0.67474      .   S
    C154   O400      0.54259      .   S
    C58    O400      0.54259      .   S
    C166   O401      0.54279      .   S
    C70    O401      0.54279      .   S
    C247   O402      0.69304      .   S
    C171   O402      0.69304      .   S
    C247   O403      1.01133      .   S
    C8     O403      1.01133      .   S
    C239   O404      0.69304      .   S
    C159   O404      0.69304      .   S
    C239   O405      1.01171      .   S
    C6     O405      1.01171      .   S
    C117   O406      0.69208      .   S
    C210   O406      0.69208      .   S
    C117   O407      0.68792      .   S
    C116   O407      0.68792      .   S
    C201   O408      0.69210      .   S
    C266   O408      0.69210      .   S
    C201   O409      0.68807      .   S
    C200   O409      0.68807      .   S
    C150   O410      0.54237  1_455   S
    C54    O410      0.54237      .   S
    C150   O411      0.68849      .   S
    C149   O411      0.68849      .   S
    C162   O412      0.54238      .   S
    C66    O412      0.54238      .   S
    C162   O413      0.68847      .   S
    C161   O413      0.68847      .   S
    C159   O414      0.54182      .   S
    C63    O414      0.54182      .   S
    C171   O415      0.54021      .   S
    C75    O415      0.54021      .   S
    C210   O416      0.67449      .   S
    C115   O416      0.67449      .   S
    C266   O417      0.67448      .   S
    C199   O417      0.67448      .   S
    C241   O418      0.69273      .   S
    C161   O418      0.69273      .   S
    C241   O419      1.00279      .   S
    C8     O419      1.00279      .   S
    C233   O420      0.69268      .   S
    C149   O420      0.69268      .   S
    C233   O421      1.00232      .   S
    C6     O421      1.00232      .   S
    C149   O422      0.54228      .   S
    C53    O422      0.54228      .   S
    C161   O423      0.54228      .   S
    C65    O423      0.54228      .   S
    C6     O424      0.99821      .   S
    C235   O424      0.99821      .   S
    C8     O425      0.99828      .   S
    C243   O425      0.99828      .   S
    C116   O426      0.54230      .   S
    C20    O426      0.54230      .   S
    C116   O427      0.69258      .   S
    C211   O427      0.69258      .   S
    C200   O428      0.54230      .   S
    C104   O428      0.54230      .   S
    C200   O429      0.69255      .   S
    C267   O429      0.69255      .   S
    C115   O430      0.54274      .   S
    C19    O430      0.54274      .   S
    C115   O431      0.67539      .   S
    C211   O431      0.67539      .   S
    C199   O432      0.54276      .   S
    C103   O432      0.54276      .   S
    C199   O433      0.67541      .   S
    C267   O433      0.67541      .   S
    C211   O434      0.99828      .   S
    C0     O434      0.99828      .   S
    C267   O435      0.99830      .   S
    C14    O435      0.99830      .   S
    C235   O436      0.67542      .   S
    C151   O436      0.67542      .   S
    C235   O437      0.69255      .   S
    C152   O437      0.69255      .   S
    C243   O438      0.67540      .   S
    C163   O438      0.67540      .   S
    C243   O439      0.69232      .   S
    C164   O439      0.69232      .   S
    C55    O440      0.54275      .   S
    C151   O440      0.54275      .   S
    C67    O441      0.54277      .   S
    C163   O441      0.54277      .   S
    C151   O442      0.67448      .   S
    C234   O442      0.67448      .   S
    C163   O443      0.67440      .   S
    C242   O443      0.67440      .   S
    C56    O444      0.54228      .   S
    C152   O444      0.54228      .   S
    C68    O445      0.54227      .   S
    C164   O445      0.54227      .   S
    C152   O446      0.68791      .   S
    C153   O446      0.68791      .   S
    C164   O447      0.68817      .   S
    C165   O447      0.68817      .   S
    C27    O448      0.54238      .   S
    C123   O448      0.54238      .   S
    C111   O449      0.54242      .   S
    C207   O449      0.54242      .   S
    C17    O450      0.54232      .   S
    C113   O450      0.54232      .   S
    C101   O451      0.54260      .   S
    C197   O451      0.54260      .   S
    C22    O452      0.54263      .   S
    C118   O452      0.54263      .   S
    C106   O453      0.54258      .   S
    C202   O453      0.54258      .   S
    C0     O454      1.00267      .   S
    C209   O454      1.00267      .   S
    C0     O455      1.01132      .   S
    C215   O455      1.01132      .   S
    C0     O456      1.00555      .   S
    C213   O456      1.00555      .   S
    C14    O457      1.00232      .   S
    C265   O457      1.00232      .   S
    C14    O458      1.01168      .   S
    C271   O458      1.01168      .   S
    C14    O459      1.00529      .   S
    C269   O459      1.00529      .   S
    C113   O460      0.69262      .   S
    C209   O460      0.69262      .   S
    C113   O461      0.68845      .   S
    C114   O461      0.68845      .   S
    C197   O462      0.69267      .   S
    C265   O462      0.69267      .   S
    C197   O463      0.68846      .   S
    C198   O463      0.68846      .   S
    C209   O464      0.67502      .   S
    C112   O464      0.67502      .   S
    C265   O465      0.67444      .   S
    C196   O465      0.67444      .   S
    C234   O466      0.69206      .   S
    C153   O466      0.69206      .   S
    C234   O467      0.99976      .   S
    C1     O467      0.99976      .   S
    C242   O468      0.69209      .   S
    C165   O468      0.69209      .   S
    C242   O469      1.00549      .   S
    C15    O469      1.00549      .   S
    C123   O470      0.69304      .   S
    C215   O470      0.69304      .   S
    C123   O471      0.68834      .   S
    C122   O471      0.68834      .   S
    C207   O472      0.69304      .   S
    C271   O472      0.69304      .   S
    C207   O473      0.68836      .   S
    C206   O473      0.68836      .   S
    C18    O474      0.54237      .   S
    C114   O474      0.54237      .   S
    C102   O475      0.54240      .   S
    C198   O475      0.54240  1_655   S
    C114   O476      0.69252      .   S
    C208   O476      0.69252      .   S
    C198   O477      0.69248      .   S
    C264   O477      0.69248      .   S
    C153   O478      0.54205      .   S
    C57    O478      0.54205      .   S
    C165   O479      0.54126      .   S
    C69    O479      0.54126      .   S
    C271   O480      0.67436      .   S
    C205   O480      0.67436      .   S
    C215   O481      0.67428      .   S
    C121   O481      0.67428      .   S
    C118   O482      0.67434  1_545   S
    C213   O482      0.67434      .   S
    C118   O483      0.67464      .   S
    C212   O483      0.67464      .   S
    C202   O484      0.67437      .   S
    C269   O484      0.67437      .   S
    C202   O485      0.67464      .   S
    C268   O485      0.67464      .   S
    C196   O486      0.67444      .   S
    C264   O486      0.67444      .   S
    C196   O487      0.54274      .   S
    C100   O487      0.54274      .   S
    C112   O488      0.67441      .   S
    C208   O488      0.67441      .   S
    C112   O489      0.54247      .   S
    C16    O489      0.54247      .   S
    C264   O490      1.00719      .   S
    C15    O490      1.00719  1_455   S
    C208   O491      1.00472      .   S
    C1     O491      1.00472      .   S
    C213   O492      0.69263      .   S
    C119   O492      0.69263      .   S
    C269   O493      0.69269      .   S
    C203   O493      0.69269      .   S
    C122   O494      0.54239      .   S
    C26    O494      0.54239      .   S
    C122   O495      0.69276      .   S
    C214   O495      0.69276      .   S
    C206   O496      0.54239      .   S
    C110   O496      0.54239      .   S
    C206   O497      0.69275      .   S
    C270   O497      0.69275      .   S
    C1     O498      1.00428      .   S
    C268   O498      1.00428      .   S
    C1     O499      1.00444      .   S
    C254   O499      1.00444      .   S
    C15    O500      1.00406  1_455   S
    C212   O500      1.00406      .   S
    C15    O501      0.99705      .   S
    C230   O501      0.99705      .   S
    C212   O502      0.69243      .   S
    C120   O502      0.69243      .   S
    C268   O503      0.69240      .   S
    C204   O503      0.69240      .   S
    C205   O504      0.67459      .   S
    C270   O504      0.67459      .   S
    C205   O505      0.54255      .   S
    C109   O505      0.54255      .   S
    C121   O506      0.67458      .   S
    C214   O506      0.67458      .   S
    C121   O507      0.54255      .   S
    C25    O507      0.54255      .   S
    C84    O508      0.54240      .   S
    C180   O508      0.54240      .   S
    C48    O509      0.54233      .   S
    C144   O509      0.54233      .   S
    C270   O510      0.99716      .   S
    C5     O510      0.99716      .   S
    C214   O511      0.99706      .   S
    C11    O511      0.99706      .   S
    C119   O512      0.68839  1_565   S
    C120   O512      0.68839      .   S
    C119   O513      0.54242      .   S
    C23    O513      0.54242      .   S
    C203   O514      0.68848      .   S
    C204   O514      0.68848      .   S
    C203   O515      0.54226      .   S
    C107   O515      0.54226      .   S
    C120   O516      0.54228      .   S
    C24    O516      0.54228      .   S
    C204   O517      0.54240      .   S
    C108   O517      0.54240      .   S
    C83    O518      0.54244      .   S
    C179   O518      0.54244      .   S
    C47    O519      0.54243      .   S
    C143   O519      0.54243      .   S
    C180   O520      0.68837      .   S
    C179   O520      0.68837  1_565   S
    C180   O521      0.69239      .   S
    C252   O521      0.69239      .   S
    C144   O522      0.68848      .   S
    C143   O522      0.68848      .   S
    C144   O523      0.69244      .   S
    C228   O523      0.69244      .   S
    C49    O524      0.54256      .   S
    C145   O524      0.54256      .   S
    C85    O525      0.54244      .   S
    C181   O525      0.54244      .   S
    C179   O526      0.69263      .   S
    C253   O526      0.69263      .   S
    C143   O527      0.69275      .   S
    C229   O527      0.69275      .   S
    C230   O528      0.67458      .   S
    C145   O528      0.67458      .   S
    C230   O529      0.69274      .   S
    C146   O529      0.69274      .   S
    C254   O530      0.67447      .   S
    C181   O530      0.67447      .   S
    C254   O531      0.69270      .   S
    C182   O531      0.69270      .   S
    C145   O532      0.67432      .   S
    C231   O532      0.67432      .   S
    C181   O533      0.67452      .   S
    C255   O533      0.67452      .   S
    C228   O534      1.00392      .   S
    C11    O534      1.00392  1_655   S
    C228   O535      0.67464      .   S
    C142   O535      0.67464      .   S
    C252   O536      1.00413      .   S
    C5     O536      1.00413      .   S
    C252   O537      0.67463      .   S
    C178   O537      0.67463      .   S
    C5     O538      1.00716      .   S
    C224   O538      1.00716      .   S
    C5     O539      1.00551      .   S
    C218   O539      1.00551      .   S
    C11    O540      1.00744  1_655   S
    C248   O540      1.00744      .   S
    C11    O541      1.00484      .   S
    C258   O541      1.00484      .   S
    C33    O542      0.54221      .   S
    C129   O542      0.54221      .   S
    C93    O543      0.54207      .   S
    C189   O543      0.54207      .   S
    C50    O544      0.54238      .   S
    C146   O544      0.54238      .   S
    C86    O545      0.54238      .   S
    C182   O545      0.54238      .   S
    C146   O546      0.68838      .   S
    C147   O546      0.68838      .   S
    C182   O547      0.68836      .   S
    C183   O547      0.68836      .   S
    C76    O548      0.54249      .   S
    C172   O548      0.54249      .   S
    C40    O549      0.54249      .   S
    C136   O549      0.54249      .   S
    C229   O550      0.67438      .   S
    C142   O550      0.67438      .   S
    C229   O551      1.00539      .   S
    C4     O551      1.00539      .   S
    C253   O552      0.67433      .   S
    C178   O552      0.67433  1_545   S
    C253   O553      1.00567      .   S
    C10    O553      1.00567      .   S
    C248   O554      0.67443      .   S
    C172   O554      0.67443      .   S
    C248   O555      0.69265      .   S
    C174   O555      0.69265      .   S
    C224   O556      0.67437      .   S
    C136   O556      0.67437      .   S
    C224   O557      0.69250      .   S
    C138   O557      0.69250      .   S
    C172   O558      0.67481      .   S
    C249   O558      0.67481      .   S
    C136   O559      0.67453      .   S
    C225   O559      0.67453      .   S
    C142   O560      0.54186      .   S
    C46    O560      0.54186      .   S
    C178   O561      0.54263      .   S
    C82    O561      0.54263      .   S
    C231   O562      0.69305      .   S
    C147   O562      0.69305      .   S
    C231   O563      1.01158      .   S
    C4     O563      1.01158      .   S
    C255   O564      0.69303      .   S
    C183   O564      0.69303      .   S
    C255   O565      1.01133      .   S
    C10    O565      1.01133      .   S
    C129   O566      0.69209      .   S
    C218   O566      0.69209      .   S
    C129   O567      0.68792      .   S
    C128   O567      0.68792      .   S
    C189   O568      0.69193      .   S
    C258   O568      0.69193      .   S
    C189   O569      0.68788      .   S
    C188   O569      0.68788      .   S
    C138   O570      0.54237      .   S
    C42    O570      0.54237      .   S
    C138   O571      0.68846      .   S
    C137   O571      0.68846      .   S
    C174   O572      0.54241  1_455   S
    C78    O572      0.54241      .   S
    C174   O573      0.68846      .   S
    C173   O573      0.68846      .   S
    C147   O574      0.54240      .   S
    C51    O574      0.54240      .   S
    C183   O575      0.54239      .   S
    C87    O575      0.54239      .   S
    C258   O576      0.67516      .   S
    C187   O576      0.67516      .   S
    C218   O577      0.67430      .   S
    C127   O577      0.67430      .   S
    C225   O578      0.69281      .   S
    C137   O578      0.69281      .   S
    C225   O579      1.00263      .   S
    C4     O579      1.00263      .   S
    C249   O580      0.69273      .   S
    C173   O580      0.69273      .   S
    C249   O581      1.00281      .   S
    C10    O581      1.00281      .   S
    C137   O582      0.54230      .   S
    C41    O582      0.54230      .   S
    C173   O583      0.54230      .   S
    C77    O583      0.54230      .   S
    C128   O584      0.54116      .   S
    C32    O584      0.54116      .   S
    C128   O585      0.69252      .   S
    C219   O585      0.69252      .   S
    C188   O586      0.54230      .   S
    C92    O586      0.54230      .   S
    C188   O587      0.69256      .   S
    C259   O587      0.69256      .   S
    C127   O588      0.54281      .   S
    C31    O588      0.54281      .   S
    C127   O589      0.67545      .   S
    C219   O589      0.67545      .   S
    C187   O590      0.54275      .   S
    C91    O590      0.54275      .   S
    C187   O591      0.67541      .   S
    C259   O591      0.67541      .   S
