# CIF file generated by openbabel 2.4.90, see http://openbabel.sf.net
data_I
_chemical_name_common ''
_cell_length_a 15.096
_cell_length_b 16.337
_cell_length_c 16.337
_cell_angle_alpha 119.849
_cell_angle_beta 90.001
_cell_angle_gamma 90.001
_space_group_name_H-M_alt 'P 1'
_space_group_name_Hall 'P 1'
loop_
    _symmetry_equiv_pos_as_xyz
    x,y,z
loop_
    _atom_site_label
    _atom_site_type_symbol
    _atom_site_fract_x
    _atom_site_fract_y
    _atom_site_fract_z
    _atom_site_occupancy
    H0      H    0.03369   0.53284   0.40000   1.000
    H1      H    0.53367   0.53284   0.40000   1.000
    C2      C    0.47240   0.82494   0.47480   1.000
    C3      C    0.97238   0.82494   0.47480   1.000
    C4      C    0.47245   0.65050   0.17479   1.000
    C5      C    0.97244   0.65050   0.17479   1.000
    C6      C    0.47250   0.52524   0.34990   1.000
    C7      C    0.97248   0.52524   0.34990   1.000
    C8      C    0.22195   0.17518   0.52537   1.000
    C9      C    0.72194   0.17518   0.52537   1.000
    C10     C    0.22191   0.34958   0.82520   1.000
    C11     C    0.72189   0.34958   0.82520   1.000
    C12     C    0.22201   0.47478   0.65016   1.000
    C13     C    0.72200   0.47478   0.65016   1.000
    C14     C    0.22202   0.65018   0.47479   1.000
    C15     C    0.72200   0.65018   0.47479   1.000
    C16     C    0.22196   0.52537   0.17510   1.000
    C17     C    0.72194   0.52537   0.17510   1.000
    C18     C    0.22191   0.82521   0.34957   1.000
    C19     C    0.72190   0.82521   0.34957   1.000
    C20     C    0.47250   0.34990   0.52522   1.000
    C21     C    0.97249   0.34990   0.52522   1.000
    C22     C    0.47240   0.47481   0.82493   1.000
    C23     C    0.97239   0.47481   0.82493   1.000
    C24     C    0.47246   0.17480   0.65050   1.000
    C25     C    0.97244   0.17480   0.65000   1.000
    O26     O    0.43281   0.74476   0.44563   1.000
    O27     O    0.93279   0.74476   0.44563   1.000
    O28     O    0.04751   0.82690   0.44097   1.000
    O29     O    0.54749   0.82690   0.44097   1.000
    O30     O    0.43280   0.70163   0.25483   1.000
    O31     O    0.93279   0.70163   0.25483   1.000
    O32     O    0.04754   0.61483   0.17310   1.000
    O33     O    0.54752   0.61483   0.17310   1.000
    O34     O    0.43292   0.55434   0.29870   1.000
    O35     O    0.93290   0.55434   0.29870   1.000
    O36     O    0.04757   0.55913   0.38561   1.000
    O37     O    0.54756   0.55913   0.38561   1.000
    O38     O    0.18234   0.25526   0.55429   1.000
    O39     O    0.68233   0.25526   0.55429   1.000
    O40     O    0.29693   0.17330   0.55950   1.000
    O41     O    0.79691   0.17330   0.55950   1.000
    O42     O    0.18218   0.29832   0.74528   1.000
    O43     O    0.68217   0.29832   0.74528   1.000
    O44     O    0.29688   0.38540   0.82667   1.000
    O45     O    0.79687   0.38540   0.82667   1.000
    O46     O    0.18239   0.44593   0.70151   1.000
    O47     O    0.68237   0.44593   0.70151   1.000
    O48     O    0.29693   0.44054   0.61421   1.000
    O49     O    0.79691   0.44054   0.61421   1.000
    O50     O    0.18239   0.70152   0.44593   1.000
    O51     O    0.68237   0.70152   0.44593   1.000
    O52     O    0.29692   0.61421   0.44053   1.000
    O53     O    0.79691   0.61421   0.44050   1.000
    O54     O    0.18234   0.55430   0.25526   1.000
    O55     O    0.68233   0.55430   0.25526   1.000
    O56     O    0.29692   0.55951   0.17329   1.000
    O57     O    0.79691   0.55951   0.17329   1.000
    O58     O    0.18218   0.74529   0.29832   1.000
    O59     O    0.68217   0.74529   0.29832   1.000
    O60     O    0.29688   0.82668   0.38540   1.000
    O61     O    0.79687   0.82668   0.38540   1.000
    O62     O    0.43292   0.29871   0.55433   1.000
    O63     O    0.93290   0.29871   0.55433   1.000
    O64     O    0.04757   0.38562   0.55913   1.000
    O65     O    0.54756   0.38562   0.55913   1.000
    O66     O    0.43281   0.44563   0.74475   1.000
    O67     O    0.93279   0.44563   0.74475   1.000
    O68     O    0.04751   0.44097   0.82689   1.000
    O69     O    0.54749   0.44097   0.82600   1.000
    O70     O    0.43281   0.25483   0.70162   1.000
    O71     O    0.93279   0.25483   0.70162   1.000
    O72     O    0.04753   0.17319   0.61480   1.000
    O73     O    0.54752   0.17319   0.61480   1.000
loop_
    _geom_bond_atom_site_label_1
    _geom_bond_atom_site_label_2
    _geom_bond_distance
    _geom_bond_site_symmetry_2
    _ccdc_geom_bond_type
    O33    C4        1.26831      .   S
    O32    C5        1.26873  1_455   S
    O56    C16       1.26855      .   S
    O57    C17       1.26855      .   S
    C5     O31       1.29560      .   S
    C4     O30       1.29559      .   S
    C17    O55       1.29610      .   S
    C16    O54       1.29610      .   S
    O58    C18       1.29501      .   S
    O59    C19       1.29501      .   S
    O34    C6        1.29567      .   S
    O35    C7        1.29565      .   S
    C18    O60       1.26883      .   S
    C19    O61       1.26883      .   S
    C7     O36       1.26898  1_655   S
    C6     O37       1.26857      .   S
    O36    H0        0.61979      .   S
    O37    H1        0.61978      .   S
    O53    C15       1.26891      .   S
    O52    C14       1.26881      .   S
    O28    C3        1.26902  1_455   S
    O29    C2        1.26859      .   S
    O26    C2        1.29559      .   S
    O27    C3        1.29559      .   S
    O50    C14       1.29512      .   S
    O51    C15       1.29512      .   S
    C21    O63       1.29562      .   S
    C21    O64       1.26899  1_655   S
    C20    O62       1.29562      .   S
    C20    O65       1.26858      .   S
    C9     O39       1.29510      .   S
    C9     O41       1.26880      .   S
    C8     O38       1.29510      .   S
    C8     O40       1.26880      .   S
    O48    C12       1.26877      .   S
    O49    C13       1.26876      .   S
    O73    C24       1.26873      .   S
    O72    C25       1.26550  1_455   S
    C25    O71       1.29676      .   S
    C12    O46       1.29512      .   S
    C13    O47       1.29512      .   S
    C24    O70       1.29557      .   S
    O66    C22       1.29564      .   S
    O67    C23       1.29565      .   S
    O42    C10       1.29508      .   S
    O43    C11       1.29508      .   S
    C22    O69       1.26511      .   S
    C23    O68       1.26895  1_655   S
    C11    O45       1.26887      .   S
    C10    O44       1.26888      .   S
