# CIF file generated by openbabel 2.4.90, see http://openbabel.sf.net
data_I
_chemical_name_common ''
_cell_length_a 15.096
_cell_length_b 16.337
_cell_length_c 16.337
_cell_angle_alpha 119.849
_cell_angle_beta 90.001
_cell_angle_gamma 90.001
_space_group_name_H-M_alt 'P 1'
_space_group_name_Hall 'P 1'
loop_
    _symmetry_equiv_pos_as_xyz
    x,y,z
loop_
    _atom_site_label
    _atom_site_type_symbol
    _atom_site_fract_x
    _atom_site_fract_y
    _atom_site_fract_z
    _atom_site_occupancy
    Zr0     Zr   0.06717   0.66703   0.33319   1.000
    Zr1     Zr   0.56716   0.66703   0.33319   1.000
    Zr2     Zr   0.31724   0.33303   0.66686   1.000
    Zr3     Zr   0.81722   0.33303   0.66686   1.000
    Zr4     Zr   0.31724   0.66687   0.33303   1.000
    Zr5     Zr   0.81722   0.66687   0.33303   1.000
    Zr6     Zr   0.06717   0.33319   0.66703   1.000
    Zr7     Zr   0.56716   0.33319   0.66703   1.000
    N8      N    0.89289   0.38673   0.38671   1.000
    N9      N    0.89274   0.99958   0.61335   1.000
    N10     N    0.39290   0.38672   0.38672   1.000
    N11     N    0.64245   0.00051   0.38668   1.000
    N12     N    0.14265   0.61345   0.61345   1.000
    N13     N    0.14246   0.00051   0.38669   1.000
    N14     N    0.14246   0.38669   0.00050   1.000
    N15     N    0.39275   0.99958   0.61335   1.000
    N16     N    0.87512   0.62342   0.99951   1.000
    N17     N    0.37513   0.62342   0.99951   1.000
    N18     N    0.64245   0.38669   0.00050   1.000
    N19     N    0.64264   0.61345   0.61344   1.000
    C20     C    0.48423   0.79887   0.45380   1.000
    O21     O    0.45339   0.86680   0.50804   1.000
    O22     O    0.49211   0.75238   0.42161   1.000
    O23     O    0.42963   0.75234   0.42157   1.000
    O24     O    0.52078   0.77292   0.42044   1.000
    C25     C    0.98425   0.65565   0.20091   1.000
    O26     O    0.94900   0.64410   0.13275   1.000
    O27     O    0.92963   0.66995   0.24742   1.000
    O28     O    0.99212   0.66999   0.24746   1.000
    O29     O    0.02080   0.64829   0.22703   1.000
    C30     C    0.49666   0.54289   0.35855   1.000
    O31     O    0.52701   0.57799   0.35898   1.000
    O32     O    0.43587   0.57675   0.33721   1.000
    O33     O    0.49835   0.57679   0.33725   1.000
    O34     O    0.45967   0.49034   0.36562   1.000
    C35     C    0.23374   0.54639   0.20122   1.000
    O36     O    0.20298   0.49210   0.13327   1.000
    O37     O    0.17925   0.57853   0.24772   1.000
    O38     O    0.24177   0.57849   0.24768   1.000
    O39     O    0.27041   0.57979   0.22719   1.000
    C40     C    0.98423   0.79887   0.45380   1.000
    O41     O    0.95338   0.86680   0.50804   1.000
    O42     O    0.99210   0.75238   0.42161   1.000
    O43     O    0.92962   0.75234   0.42157   1.000
    O44     O    0.02078   0.77292   0.42044   1.000
    C45     C    0.99666   0.54289   0.35855   1.000
    O46     O    0.95966   0.49034   0.36562   1.000
    O47     O    0.99835   0.57679   0.33725   1.000
    O48     O    0.93586   0.57675   0.33721   1.000
    O49     O    0.02702   0.57799   0.35898   1.000
    C50     C    0.73376   0.65530   0.45374   1.000
    O51     O    0.74178   0.66975   0.42161   1.000
    O52     O    0.67926   0.66979   0.42165   1.000
    O53     O    0.70305   0.64138   0.50804   1.000
    O54     O    0.77041   0.64792   0.42025   1.000
    C55     C    0.23366   0.79906   0.34443   1.000
    O56     O    0.27036   0.77292   0.35182   1.000
    O57     O    0.17917   0.75261   0.33009   1.000
    O58     O    0.24168   0.75257   0.33005   1.000
    O59     O    0.20293   0.86725   0.35848   1.000
    C60     C    0.73364   0.79906   0.34443   1.000
    O61     O    0.67915   0.75261   0.33009   1.000
    O62     O    0.74167   0.75257   0.33005   1.000
    O63     O    0.70292   0.86725   0.35848   1.000
    O64     O    0.77034   0.77292   0.35182   1.000
    C65     C    0.23378   0.65530   0.45375   1.000
    O66     O    0.20307   0.64137   0.50804   1.000
    O67     O    0.27043   0.64792   0.42026   1.000
    O68     O    0.24180   0.66975   0.42161   1.000
    O69     O    0.17928   0.66979   0.42166   1.000
    C70     C    0.73373   0.54639   0.20122   1.000
    O71     O    0.77040   0.57979   0.22719   1.000
    O72     O    0.70297   0.49210   0.13327   1.000
    O73     O    0.67923   0.57853   0.24772   1.000
    O74     O    0.74175   0.57849   0.24768   1.000
    C75     C    0.48426   0.65565   0.20091   1.000
    O76     O    0.42964   0.66995   0.24742   1.000
    O77     O    0.49212   0.66999   0.24746   1.000
    O78     O    0.52080   0.64829   0.22703   1.000
    O79     O    0.44901   0.64410   0.13275   1.000
    C80     C    0.23366   0.34444   0.79905   1.000
    O81     O    0.20293   0.35849   0.86724   1.000
    O82     O    0.17917   0.33010   0.75260   1.000
    O83     O    0.24168   0.33006   0.75256   1.000
    O84     O    0.27036   0.35183   0.77291   1.000
    C85     C    0.23374   0.20125   0.54639   1.000
    O86     O    0.20298   0.13330   0.49210   1.000
    O87     O    0.17925   0.24774   0.57852   1.000
    O88     O    0.24177   0.24770   0.57848   1.000
    O89     O    0.27041   0.22721   0.57978   1.000
    C90     C    0.73364   0.34444   0.79905   1.000
    O91     O    0.77034   0.35183   0.77291   1.000
    O92     O    0.67915   0.33010   0.75260   1.000
    O93     O    0.74167   0.33006   0.75256   1.000
    O94     O    0.70292   0.35849   0.86724   1.000
    C95     C    0.48423   0.45380   0.79856   1.000
    O96     O    0.52078   0.42044   0.77254   1.000
    O97     O    0.49211   0.42161   0.75223   1.000
    O98     O    0.42963   0.42157   0.75218   1.000
    O99     O    0.44899   0.51056   0.86663   1.000
    C100    C    0.98423   0.45380   0.79886   1.000
    O101    O    0.94898   0.51056   0.86678   1.000
    O102    O    0.99211   0.42161   0.75237   1.000
    O103    O    0.92962   0.42157   0.75233   1.000
    O104    O    0.02078   0.42044   0.77291   1.000
    C105    C    0.73372   0.20125   0.54639   1.000
    O106    O    0.70297   0.13330   0.49209   1.000
    O107    O    0.77040   0.22721   0.57978   1.000
    O108    O    0.74175   0.24770   0.57848   1.000
    O109    O    0.67923   0.24774   0.57852   1.000
    C110    C    0.98426   0.20094   0.65547   1.000
    O111    O    0.02080   0.22706   0.64819   1.000
    O112    O    0.95341   0.13278   0.64143   1.000
    O113    O    0.99212   0.24748   0.66990   1.000
    O114    O    0.92963   0.24744   0.66986   1.000
    C115    C    0.98432   0.34474   0.54623   1.000
    O116    O    0.95349   0.35872   0.49200   1.000
    O117    O    0.92969   0.33030   0.57841   1.000
    O118    O    0.99218   0.33034   0.57845   1.000
    O119    O    0.02085   0.35207   0.57965   1.000
    C120    C    0.48433   0.34474   0.54623   1.000
    O121    O    0.52084   0.35207   0.57965   1.000
    O122    O    0.42970   0.33030   0.57841   1.000
    O123    O    0.49218   0.33034   0.57845   1.000
    O124    O    0.45350   0.35872   0.49200   1.000
    C125    C    0.73376   0.45375   0.65529   1.000
    O126    O    0.77041   0.42027   0.64791   1.000
    O127    O    0.70305   0.50805   0.64137   1.000
    O128    O    0.67926   0.42166   0.66978   1.000
    O129    O    0.74178   0.42162   0.66974   1.000
    C130    C    0.48426   0.20094   0.65564   1.000
    O131    O    0.52080   0.22706   0.64828   1.000
    O132    O    0.45342   0.13278   0.64158   1.000
    O133    O    0.49212   0.24748   0.66998   1.000
    O134    O    0.42964   0.24744   0.66994   1.000
    C135    C    0.23378   0.45375   0.65529   1.000
    O136    O    0.17928   0.42166   0.66978   1.000
    O137    O    0.24179   0.42162   0.66974   1.000
    O138    O    0.27043   0.42027   0.64791   1.000
    O139    O    0.20307   0.50805   0.64137   1.000
loop_
    _geom_bond_atom_site_label_1
    _geom_bond_atom_site_label_2
    _geom_bond_distance
    _geom_bond_site_symmetry_2
    _ccdc_geom_bond_type
    C20    O21       1.12018      .   S
    N15    O21       2.18825      .   S
    C20    O22       0.68549      .   S
    Zr1    O22       1.81918      .   S
    C20    O23       1.06586      .   S
    Zr4    O23       2.21580      .   S
    C20    O24       0.74240      .   S
    Zr1    O24       1.74925      .   S
    C25    O26       1.16165      .   S
    N16    O26       2.31601  1_556   S
    C25    O27       1.06548      .   S
    Zr5    O27       2.21546      .   S
    C25    O28       0.68556      .   S
    Zr0    O28       1.82072  1_455   S
    C25    O29       0.74299  1_655   S
    Zr0    O29       1.75018      .   S
    C30    O31       0.73125      .   S
    Zr1    O31       1.80864      .   S
    C30    O32       1.20903      .   S
    Zr4    O32       2.34087      .   S
    C30    O33       0.78764      .   S
    Zr1    O33       1.83146      .   S
    C30    O34       1.07745      .   S
    N10    O34       2.14030      .   S
    C35    O36       1.11999      .   S
    N14    O36       2.18783      .   S
    C35    O37       1.06420      .   S
    Zr0    O37       2.21212      .   S
    C35    O38       0.68528      .   S
    Zr4    O38       1.82288      .   S
    C35    O39       0.74412      .   S
    Zr4    O39       1.75062      .   S
    C40    O41       1.12021      .   S
    N9     O41       2.18827      .   S
    C40    O42       0.68549      .   S
    Zr0    O42       1.81934  1_455   S
    C40    O43       1.06592      .   S
    Zr5    O43       2.21586      .   S
    C40    O44       0.74251  1_655   S
    Zr0    O44       1.74930      .   S
    C45    O46       1.07749      .   S
    N8     O46       2.14032      .   S
    C45    O47       0.78763      .   S
    Zr0    O47       1.83158  1_455   S
    C45    O48       1.20912      .   S
    Zr5    O48       2.34097      .   S
    C45    O49       0.73132  1_655   S
    Zr0    O49       1.80867      .   S
    C50    O51       0.68498      .   S
    Zr5    O51       1.82368      .   S
    C50    O52       1.06358      .   S
    Zr1    O52       2.21129      .   S
    C50    O53       1.12002      .   S
    N19    O53       2.18795      .   S
    C50    O54       0.74454      .   S
    Zr5    O54       1.75066      .   S
    C55    O56       0.74518      .   S
    Zr4    O56       1.75138      .   S
    C55    O57       1.06320      .   S
    Zr0    O57       2.21043      .   S
    C55    O58       0.68493      .   S
    Zr4    O58       1.82522      .   S
    C55    O59       1.11992      .   S
    N13    O59       2.18786  1_545   S
    C60    O61       1.06320      .   S
    Zr1    O61       2.21043      .   S
    C60    O62       0.68492      .   S
    Zr5    O62       1.82521      .   S
    C60    O63       1.11993      .   S
    N11    O63       2.18790  1_545   S
    C60    O64       0.74518      .   S
    Zr5    O64       1.75137      .   S
    C65    O66       1.11995      .   S
    N12    O66       2.18794      .   S
    C65    O67       0.74451      .   S
    Zr4    O67       1.75084      .   S
    C65    O68       0.68505      .   S
    Zr4    O68       1.82374      .   S
    C65    O69       1.06363      .   S
    Zr0    O69       2.21135      .   S
    C70    O71       0.74413      .   S
    Zr5    O71       1.75063      .   S
    C70    O72       1.11999      .   S
    N18    O72       2.18782      .   S
    C70    O73       1.06419      .   S
    Zr1    O73       2.21211      .   S
    C70    O74       0.68528      .   S
    Zr5    O74       1.82289      .   S
    C75    O76       1.06542      .   S
    Zr4    O76       2.21541      .   S
    C75    O77       0.68556      .   S
    Zr1    O77       1.82055      .   S
    C75    O78       0.74288      .   S
    Zr1    O78       1.75013      .   S
    C75    O79       1.16162      .   S
    N17    O79       2.31597  1_556   S
    C80    O81       1.11995      .   S
    N14    O81       2.18792  1_554   S
    C80    O82       1.06317      .   S
    Zr6    O82       2.21034      .   S
    C80    O83       0.68492      .   S
    Zr2    O83       1.82518      .   S
    C80    O84       0.74518      .   S
    Zr2    O84       1.75133      .   S
    C85    O86       1.12002      .   S
    N13    O86       2.18805      .   S
    C85    O87       1.06409      .   S
    Zr6    O87       2.21202      .   S
    C85    O88       0.68511      .   S
    Zr2    O88       1.82276      .   S
    C85    O89       0.74407      .   S
    Zr2    O89       1.75045      .   S
    C90    O91       0.74518      .   S
    Zr3    O91       1.75133      .   S
    C90    O92       1.06317      .   S
    Zr7    O92       2.21033      .   S
    C90    O93       0.68492      .   S
    Zr3    O93       1.82518      .   S
    C90    O94       1.11995      .   S
    N18    O94       2.18792  1_554   S
    C95    O96       0.74265      .   S
    Zr7    O96       1.74569      .   S
    C95    O97       0.68372      .   S
    Zr7    O97       1.81827      .   S
    C95    O98       1.06474      .   S
    Zr2    O98       2.21509      .   S
    C95    O99       1.16324      .   S
    N17    O99       2.31757      .   S
    C100   O101      1.16192      .   S
    N16    O101      2.31629      .   S
    C100   O102      0.68548      .   S
    Zr6    O102      1.81933  1_455   S
    C100   O103      1.06593      .   S
    Zr3    O103      2.21589      .   S
    C100   O104      0.74251  1_655   S
    Zr6    O104      1.74927      .   S
    C105   O106      1.12003      .   S
    N11    O106      2.18808      .   S
    C105   O107      0.74407      .   S
    Zr3    O107      1.75046      .   S
    C105   O108      0.68511      .   S
    Zr3    O108      1.82277      .   S
    C105   O109      1.06408      .   S
    Zr7    O109      2.21201      .   S
    C110   O111      0.74246  1_655   S
    Zr6    O111      1.74916      .   S
    C110   O112      1.12026      .   S
    N9     O112      2.18887  1_565   S
    C110   O113      0.68504      .   S
    Zr6    O113      1.81993  1_455   S
    C110   O114      1.06516      .   S
    Zr3    O114      2.21486      .   S
    C115   O116      1.12019      .   S
    N8     O116      2.18827      .   S
    C115   O117      1.06566      .   S
    Zr3    O117      2.21556      .   S
    C115   O118      0.68545      .   S
    Zr6    O118      1.81956  1_455   S
    C115   O119      0.74261  1_655   S
    Zr6    O119      1.74934      .   S
    C120   O121      0.74250      .   S
    Zr7    O121      1.74928      .   S
    C120   O122      1.06560      .   S
    Zr2    O122      2.21550      .   S
    C120   O123      0.68544      .   S
    Zr7    O123      1.81939      .   S
    C120   O124      1.12015      .   S
    N10    O124      2.18822      .   S
    C125   O126      0.74450      .   S
    Zr3    O126      1.75086      .   S
    C125   O127      1.11998      .   S
    N19    O127      2.18801      .   S
    C125   O128      1.06363      .   S
    Zr7    O128      2.21134      .   S
    C125   O129      0.68506      .   S
    Zr3    O129      1.82375      .   S
    C130   O131      0.74296      .   S
    Zr7    O131      1.74954      .   S
    C130   O132      1.12013      .   S
    N15    O132      2.18817  1_565   S
    C130   O133      0.68532      .   S
    Zr7    O133      1.82032      .   S
    C130   O134      1.06528      .   S
    Zr2    O134      2.21526      .   S
    C135   O136      1.06363      .   S
    Zr6    O136      2.21135      .   S
    C135   O137      0.68506      .   S
    Zr2    O137      1.82374      .   S
    C135   O138      0.74450      .   S
    Zr2    O138      1.75085      .   S
    C135   O139      1.11997      .   S
    N12    O139      2.18796      .   S
