# CIF file generated by openbabel 2.4.90, see http://openbabel.sf.net
data_I
_chemical_name_common ''
_cell_length_a 20.818
_cell_length_b 14.184
_cell_length_c 14.212
_cell_angle_alpha 105.285
_cell_angle_beta 97.023
_cell_angle_gamma 95.798
_space_group_name_H-M_alt 'P 1'
_space_group_name_Hall 'P 1'
loop_
    _symmetry_equiv_pos_as_xyz
    x,y,z
loop_
    _atom_site_label
    _atom_site_type_symbol
    _atom_site_fract_x
    _atom_site_fract_y
    _atom_site_fract_z
    _atom_site_occupancy
    Zn0     Zn   0.80551   0.24213   0.68204   1.000
    Zn1     Zn   0.44401   0.31749   0.76071   1.000
    Zn2     Zn   0.94401   0.31749   0.76071   1.000
    Zn3     Zn   0.19449   0.75789   0.31793   1.000
    Zn4     Zn   0.69449   0.75789   0.31790   1.000
    Zn5     Zn   0.05599   0.68252   0.23925   1.000
    Zn6     Zn   0.55599   0.68253   0.23925   1.000
    Zn7     Zn   0.30551   0.24213   0.68203   1.000
    C8      C    0.40508   0.28361   0.54830   1.000
    C9      C    0.90508   0.28361   0.54837   1.000
    C10     C    0.35019   0.29250   0.89857   1.000
    C11     C    0.85019   0.29250   0.89857   1.000
    C12     C    0.34270   0.45246   0.71559   1.000
    C13     C    0.84270   0.45246   0.71559   1.000
    O14     O    0.04963   0.83368   0.27675   1.000
    O15     O    0.54963   0.83368   0.27674   1.000
    O16     O    0.15946   0.88448   0.30542   1.000
    O17     O    0.65946   0.88448   0.30540   1.000
    O18     O    0.10532   0.55506   0.23084   1.000
    C19     C    0.40045   0.10176   0.70849   1.000
    C20     C    0.90045   0.10176   0.70849   1.000
    C21     C    0.09492   0.71638   0.45159   1.000
    C22     C    0.59492   0.71639   0.45159   1.000
    C23     C    0.14981   0.70752   0.10139   1.000
    C24     C    0.64981   0.70752   0.10139   1.000
    C25     C    0.15730   0.54755   0.28436   1.000
    C26     C    0.65730   0.54755   0.28436   1.000
    C27     C    0.09955   0.89826   0.29148   1.000
    C28     C    0.59955   0.89826   0.29148   1.000
    O29     O    0.30021   0.27966   0.83310   1.000
    O30     O    0.80022   0.27966   0.83310   1.000
    O31     O    0.41010   0.30539   0.88636   1.000
    O32     O    0.91010   0.30540   0.88636   1.000
    O33     O    0.35274   0.23190   0.55423   1.000
    O34     O    0.85274   0.23190   0.55423   1.000
    O35     O    0.45279   0.32216   0.61842   1.000
    O36     O    0.95279   0.32216   0.61842   1.000
    O37     O    0.45037   0.16634   0.72323   1.000
    O38     O    0.95037   0.16634   0.72323   1.000
    O39     O    0.34054   0.11554   0.69455   1.000
    O40     O    0.84054   0.11554   0.69450   1.000
    O41     O    0.39468   0.44495   0.76911   1.000
    O42     O    0.89468   0.44495   0.76911   1.000
    O43     O    0.29483   0.38366   0.67571   1.000
    O44     O    0.79483   0.38366   0.67571   1.000
    O45     O    0.19979   0.72037   0.16686   1.000
    O46     O    0.69979   0.72037   0.16686   1.000
    O47     O    0.08990   0.69463   0.11360   1.000
    O48     O    0.58990   0.69463   0.11360   1.000
    O49     O    0.14726   0.76808   0.44573   1.000
    O50     O    0.64726   0.76810   0.44573   1.000
    O51     O    0.04721   0.67782   0.38153   1.000
    O52     O    0.54721   0.67783   0.38153   1.000
    O53     O    0.60532   0.55507   0.23084   1.000
    O54     O    0.20518   0.61635   0.32424   1.000
    O55     O    0.70518   0.61636   0.32424   1.000
loop_
    _geom_bond_atom_site_label_1
    _geom_bond_atom_site_label_2
    _geom_bond_distance
    _geom_bond_site_symmetry_2
    _ccdc_geom_bond_type
    C24    O48       1.28160      .   S
    C24    O46       1.27162      .   S
    C23    O47       1.28160      .   S
    C23    O45       1.27162      .   S
    O48    Zn6       2.04013      .   S
    O47    Zn5       2.04016      .   S
    O45    Zn3       2.09101      .   S
    O46    Zn4       2.09060      .   S
    O18    Zn5       2.15145      .   S
    O18    C25       1.27499      .   S
    O53    Zn6       2.15144      .   S
    O53    C26       1.27499      .   S
    Zn5    O14       2.09056      .   S
    Zn5    O51       2.07023      .   S
    Zn6    O15       2.09055      .   S
    Zn6    O52       2.07019      .   S
    O15    C28       1.27130      .   S
    O14    C27       1.27131      .   S
    C25    O54       1.28090      .   S
    C26    O55       1.28091      .   S
    C28    O17       1.28141      .   S
    C27    O16       1.28146      .   S
    O17    Zn4       2.04654      .   S
    O16    Zn3       2.04658      .   S
    Zn4    O55       2.06602      .   S
    Zn4    O50       2.14824      .   S
    Zn3    O54       2.06592      .   S
    Zn3    O49       2.14788      .   S
    O51    C21       1.28002      .   S
    O52    C22       1.28003      .   S
    O50    C22       1.27479      .   S
    O49    C21       1.27480      .   S
    C8     O33       1.27512      .   S
    C8     O35       1.28051      .   S
    C9     O34       1.27479      .   S
    C9     O36       1.27995      .   S
    O33    Zn7       2.14780      .   S
    O34    Zn0       2.14794      .   S
    O35    Zn1       2.07021      .   S
    O36    Zn2       2.07022      .   S
    O43    Zn7       2.06587      .   S
    O43    C12       1.28089      .   S
    O44    Zn0       2.06591      .   S
    O44    C13       1.28091      .   S
    Zn7    O39       2.04657      .   S
    Zn7    O29       2.09102      .   S
    Zn0    O40       2.04634      .   S
    Zn0    O30       2.09088      .   S
    O40    C20       1.28150      .   S
    O39    C19       1.28144      .   S
    C20    O38       1.27129      .   S
    C19    O37       1.27130      .   S
    C12    O41       1.27499      .   S
    C13    O42       1.27498      .   S
    O38    Zn2       2.09060      .   S
    O37    Zn1       2.09059      .   S
    Zn1    O41       2.15141      .   S
    Zn1    O31       2.04012      .   S
    Zn2    O42       2.15142      .   S
    Zn2    O32       2.04012      .   S
    O29    C10       1.27161      .   S
    O30    C11       1.27163      .   S
    O32    C11       1.28160      .   S
    O31    C10       1.28162      .   S
    Zn7    Zn1       2.94360      .   S
    Zn0    Zn2       2.94360      .   S
    Zn3    Zn5       2.94362      .   S
    Zn4    Zn6       2.94355      .   S
