# CIF file generated by openbabel 2.4.90, see http://openbabel.sf.net
data_I
_chemical_name_common ''
_cell_length_a 20.818
_cell_length_b 14.184
_cell_length_c 14.212
_cell_angle_alpha 105.285
_cell_angle_beta 97.023
_cell_angle_gamma 95.798
_space_group_name_H-M_alt 'P 1'
_space_group_name_Hall 'P 1'
loop_
    _symmetry_equiv_pos_as_xyz
    x,y,z
loop_
    _atom_site_label
    _atom_site_type_symbol
    _atom_site_fract_x
    _atom_site_fract_y
    _atom_site_fract_z
    _atom_site_occupancy
    Zr0     Zr   0.30551   0.24213   0.68203   1.000
    Zr1     Zr   0.80551   0.24213   0.68204   1.000
    Zr2     Zr   0.44401   0.31749   0.76071   1.000
    Zr3     Zr   0.94401   0.31749   0.76071   1.000
    Zr4     Zr   0.19449   0.75789   0.31793   1.000
    Zr5     Zr   0.69449   0.75789   0.31790   1.000
    Zr6     Zr   0.05599   0.68252   0.23925   1.000
    Zr7     Zr   0.55599   0.68253   0.23925   1.000
    Zr8     Zr   0.40508   0.28361   0.54830   1.000
    Zr9     Zr   0.90508   0.28361   0.54837   1.000
    Zr10    Zr   0.35019   0.29250   0.89857   1.000
    Zr11    Zr   0.85019   0.29250   0.89857   1.000
    Zr12    Zr   0.34270   0.45246   0.71559   1.000
    Zr13    Zr   0.84270   0.45246   0.71559   1.000
    Zr14    Zr   0.40045   0.10176   0.70849   1.000
    Zr15    Zr   0.90045   0.10176   0.70849   1.000
    Zr16    Zr   0.09492   0.71638   0.45159   1.000
    Zr17    Zr   0.59492   0.71639   0.45159   1.000
    Zr18    Zr   0.14981   0.70752   0.10139   1.000
    Zr19    Zr   0.64981   0.70752   0.10139   1.000
    Zr20    Zr   0.15730   0.54755   0.28436   1.000
    Zr21    Zr   0.65730   0.54755   0.28436   1.000
    Zr22    Zr   0.09955   0.89826   0.29148   1.000
    Zr23    Zr   0.59955   0.89826   0.29148   1.000
    Zr24    Zr   0.30021   0.27966   0.83310   1.000
    Zr25    Zr   0.80022   0.27966   0.83310   1.000
    Zr26    Zr   0.41010   0.30539   0.88636   1.000
    Zr27    Zr   0.91010   0.30540   0.88636   1.000
    Zr28    Zr   0.35274   0.23190   0.55423   1.000
    Zr29    Zr   0.85274   0.23190   0.55423   1.000
    Zr30    Zr   0.45279   0.32216   0.61842   1.000
    Zr31    Zr   0.95279   0.32216   0.61842   1.000
    Zr32    Zr   0.45037   0.16634   0.72323   1.000
    Zr33    Zr   0.95037   0.16634   0.72323   1.000
    Zr34    Zr   0.34054   0.11554   0.69455   1.000
    Zr35    Zr   0.84054   0.11554   0.69450   1.000
    Zr36    Zr   0.39468   0.44495   0.76911   1.000
    Zr37    Zr   0.89468   0.44495   0.76911   1.000
    Zr38    Zr   0.29483   0.38366   0.67571   1.000
    Zr39    Zr   0.79483   0.38366   0.67571   1.000
    Zr40    Zr   0.19979   0.72037   0.16686   1.000
    Zr41    Zr   0.69979   0.72037   0.16686   1.000
    Zr42    Zr   0.08990   0.69463   0.11360   1.000
    Zr43    Zr   0.58990   0.69463   0.11360   1.000
    Zr44    Zr   0.14726   0.76808   0.44573   1.000
    Zr45    Zr   0.64726   0.76810   0.44573   1.000
    Zr46    Zr   0.04721   0.67782   0.38153   1.000
    Zr47    Zr   0.54721   0.67783   0.38153   1.000
    Zr48    Zr   0.04963   0.83368   0.27675   1.000
    Zr49    Zr   0.54963   0.83368   0.27674   1.000
    Zr50    Zr   0.15946   0.88448   0.30542   1.000
    Zr51    Zr   0.65946   0.88448   0.30540   1.000
    Zr52    Zr   0.10532   0.55506   0.23084   1.000
    Zr53    Zr   0.60532   0.55507   0.23084   1.000
    Zr54    Zr   0.20518   0.61635   0.32424   1.000
    Zr55    Zr   0.70518   0.61636   0.32424   1.000
    O56     O    0.61986   0.70108   0.10749   1.000
    O57     O    0.67480   0.71395   0.13412   1.000
    O58     O    0.11986   0.70108   0.10749   1.000
    O59     O    0.17480   0.71395   0.13412   1.000
    O60     O    0.57295   0.68858   0.17642   1.000
    O61     O    0.07295   0.68858   0.17642   1.000
    O62     O    0.19714   0.73913   0.24239   1.000
    O63     O    0.69714   0.73913   0.24238   1.000
    O64     O    0.08066   0.61879   0.23504   1.000
    O65     O    0.13131   0.55131   0.25760   1.000
    O66     O    0.58066   0.61880   0.23504   1.000
    O67     O    0.63131   0.55131   0.25760   1.000
    O68     O    0.05281   0.75810   0.25800   1.000
    O69     O    0.05160   0.68017   0.31039   1.000
    O70     O    0.55281   0.75811   0.25799   1.000
    O71     O    0.55160   0.68018   0.31039   1.000
    O72     O    0.57459   0.86597   0.28411   1.000
    O73     O    0.07459   0.86597   0.28411   1.000
    O74     O    0.18124   0.58195   0.30430   1.000
    O75     O    0.68124   0.58196   0.30430   1.000
    O76     O    0.62951   0.89137   0.29844   1.000
    O77     O    0.12950   0.89137   0.29845   1.000
    O78     O    0.67698   0.82119   0.31165   1.000
    O79     O    0.17697   0.82118   0.31167   1.000
    O80     O    0.69983   0.68713   0.32107   1.000
    O81     O    0.67088   0.76300   0.38181   1.000
    O82     O    0.19983   0.68712   0.32108   1.000
    O83     O    0.17088   0.76299   0.38183   1.000
    O84     O    0.07106   0.69710   0.41656   1.000
    O85     O    0.57107   0.69711   0.41656   1.000
    O86     O    0.62109   0.74224   0.44866   1.000
    O87     O    0.12109   0.74223   0.44866   1.000
    O88     O    0.37891   0.25775   0.55126   1.000
    O89     O    0.42894   0.30288   0.58336   1.000
    O90     O    0.87891   0.25775   0.55130   1.000
    O91     O    0.92894   0.30289   0.58339   1.000
    O92     O    0.32913   0.23701   0.61813   1.000
    O93     O    0.82913   0.23701   0.61813   1.000
    O94     O    0.44840   0.31983   0.68956   1.000
    O95     O    0.94840   0.31983   0.68956   1.000
    O96     O    0.30017   0.31289   0.67887   1.000
    O97     O    0.31877   0.41806   0.69565   1.000
    O98     O    0.80017   0.31289   0.67887   1.000
    O99     O    0.81877   0.41806   0.69565   1.000
    O100    O    0.32303   0.17883   0.68829   1.000
    O101    O    0.30286   0.26089   0.75756   1.000
    O102    O    0.82303   0.17883   0.68827   1.000
    O103    O    0.80286   0.26089   0.75757   1.000
    O104    O    0.87050   0.10865   0.70149   1.000
    O105    O    0.37050   0.10865   0.70152   1.000
    O106    O    0.92541   0.13405   0.71586   1.000
    O107    O    0.42541   0.13405   0.71586   1.000
    O108    O    0.36869   0.44871   0.74235   1.000
    O109    O    0.86869   0.44871   0.74235   1.000
    O110    O    0.94719   0.24192   0.74197   1.000
    O111    O    0.44719   0.24192   0.74197   1.000
    O112    O    0.41935   0.38122   0.76491   1.000
    O113    O    0.42705   0.31144   0.82353   1.000
    O114    O    0.91935   0.38122   0.76491   1.000
    O115    O    0.92706   0.31145   0.82353   1.000
    O116    O    0.32520   0.28608   0.86583   1.000
    O117    O    0.82520   0.28608   0.86583   1.000
    O118    O    0.88015   0.29895   0.89246   1.000
    O119    O    0.38014   0.29895   0.89246   1.000
    O120    O    0.37476   0.27981   0.72137   1.000
    O121    O    0.87476   0.27981   0.72137   1.000
    O122    O    0.12524   0.72021   0.27859   1.000
    O123    O    0.62524   0.72021   0.27857   1.000
    N124    N    0.50000   0.00001   0.49998   1.000
    O125    O    0.37065   0.89548   0.42542   1.000
    O126    O    0.62935   0.10453   0.57454   1.000
    N127    N    0.00000   0.00001   0.49998   1.000
    O128    O    0.87065   0.89549   0.42541   1.000
    O129    O    0.12935   0.10453   0.57454   1.000
    N130    N    0.37901   0.76809   0.68207   1.000
    O131    O    0.39233   0.90949   0.69501   1.000
    O132    O    0.35956   0.63438   0.69399   1.000
    N133    N    0.75000   0.50001   0.99998   1.000
    O134    O    0.62030   0.42518   0.89663   1.000
    O135    O    0.87970   0.57483   0.10333   1.000
    N136    N    0.37084   0.31700   0.23162   1.000
    O137    O    0.35793   0.30478   0.09035   1.000
    O138    O    0.38946   0.30501   0.36595   1.000
    N139    N    0.87084   0.31700   0.23156   1.000
    O140    O    0.85793   0.30478   0.09032   1.000
    O141    O    0.88946   0.30501   0.36594   1.000
    N142    N    0.25000   0.50000   0.99998   1.000
    O143    O    0.37970   0.57484   0.10333   1.000
    O144    O    0.12030   0.42518   0.89663   1.000
    N145    N    0.62916   0.68300   0.76751   1.000
    O146    O    0.61054   0.69499   0.63357   1.000
    O147    O    0.64207   0.69523   0.90910   1.000
    N148    N    0.12916   0.68300   0.76750   1.000
    O149    O    0.14207   0.69523   0.90910   1.000
    O150    O    0.11054   0.69498   0.63357   1.000
    N151    N    0.87901   0.76809   0.68207   1.000
    O152    O    0.85956   0.63438   0.69398   1.000
    O153    O    0.89233   0.90949   0.69501   1.000
    N154    N    0.12099   0.23138   0.31788   1.000
    O155    O    0.10768   0.09024   0.30495   1.000
    O156    O    0.14045   0.36537   0.30596   1.000
    N157    N    0.62099   0.23138   0.31788   1.000
    O158    O    0.64045   0.36537   0.30596   1.000
    O159    O    0.60768   0.09025   0.30494   1.000
loop_
    _geom_bond_atom_site_label_1
    _geom_bond_atom_site_label_2
    _geom_bond_distance
    _geom_bond_site_symmetry_2
    _ccdc_geom_bond_type
    Zr19   O56       0.64080      .   S
    Zr43   O56       0.64080      .   S
    Zr19   O57       0.63581      .   S
    Zr41   O57       0.63581      .   S
    Zr18   O58       0.64080      .   S
    Zr42   O58       0.64080      .   S
    Zr18   O59       0.63581      .   S
    Zr40   O59       0.63581      .   S
    Zr43   O60       1.02006      .   S
    Zr7    O60       1.02006      .   S
    Zr42   O61       1.02008      .   S
    Zr6    O61       1.02008      .   S
    Zr40   O62       1.04551      .   S
    Zr4    O62       1.04551      .   S
    Zr41   O63       1.04530      .   S
    Zr5    O63       1.04530      .   S
    Zr52   O64       1.07573      .   S
    Zr6    O64       1.07573      .   S
    Zr52   O65       0.63749      .   S
    Zr20   O65       0.63749      .   S
    Zr53   O66       1.07572      .   S
    Zr7    O66       1.07572      .   S
    Zr53   O67       0.63749      .   S
    Zr21   O67       0.63749      .   S
    Zr6    O68       1.04528      .   S
    Zr48   O68       1.04528      .   S
    Zr6    O69       1.03512      .   S
    Zr46   O69       1.03512      .   S
    Zr7    O70       1.04528      .   S
    Zr49   O70       1.04528      .   S
    Zr7    O71       1.03510      .   S
    Zr47   O71       1.03510      .   S
    Zr49   O72       0.63565      .   S
    Zr23   O72       0.63565      .   S
    Zr48   O73       0.63566      .   S
    Zr22   O73       0.63566      .   S
    Zr20   O74       0.64045      .   S
    Zr54   O74       0.64045      .   S
    Zr21   O75       0.64045      .   S
    Zr55   O75       0.64045      .   S
    Zr23   O76       0.64071      .   S
    Zr51   O76       0.64071      .   S
    Zr22   O77       0.64073      .   S
    Zr50   O77       0.64073      .   S
    Zr51   O78       1.02327      .   S
    Zr5    O78       1.02327      .   S
    Zr50   O79       1.02329      .   S
    Zr4    O79       1.02329      .   S
    Zr5    O80       1.03301      .   S
    Zr55   O80       1.03301      .   S
    Zr5    O81       1.07412      .   S
    Zr45   O81       1.07412      .   S
    Zr4    O82       1.03296      .   S
    Zr54   O82       1.03296      .   S
    Zr4    O83       1.07394      .   S
    Zr44   O83       1.07394      .   S
    Zr46   O84       0.64001      .   S
    Zr16   O84       0.64001      .   S
    Zr47   O85       0.64002      .   S
    Zr17   O85       0.64002      .   S
    Zr45   O86       0.63739      .   S
    Zr17   O86       0.63739      .   S
    Zr44   O87       0.63740      .   S
    Zr16   O87       0.63740      .   S
    Zr8    O88       0.63756      .   S
    Zr28   O88       0.63756      .   S
    Zr8    O89       0.64025      .   S
    Zr30   O89       0.64025      .   S
    Zr9    O90       0.63739      .   S
    Zr29   O90       0.63739      .   S
    Zr9    O91       0.63998      .   S
    Zr31   O91       0.63998      .   S
    Zr28   O92       1.07390      .   S
    Zr0    O92       1.07390      .   S
    Zr29   O93       1.07397      .   S
    Zr1    O93       1.07397      .   S
    Zr30   O94       1.03511      .   S
    Zr2    O94       1.03511      .   S
    Zr31   O95       1.03511      .   S
    Zr3    O95       1.03511      .   S
    Zr38   O96       1.03294      .   S
    Zr0    O96       1.03294      .   S
    Zr38   O97       0.64045      .   S
    Zr12   O97       0.64045      .   S
    Zr39   O98       1.03296      .   S
    Zr1    O98       1.03296      .   S
    Zr39   O99       0.64045      .   S
    Zr13   O99       0.64045      .   S
    Zr0    O100      1.02329      .   S
    Zr34   O100      1.02329      .   S
    Zr0    O101      1.04551      .   S
    Zr24   O101      1.04551      .   S
    Zr1    O102      1.02317      .   S
    Zr35   O102      1.02317      .   S
    Zr1    O103      1.04544      .   S
    Zr25   O103      1.04544      .   S
    Zr35   O104      0.64075      .   S
    Zr15   O104      0.64075      .   S
    Zr34   O105      0.64072      .   S
    Zr14   O105      0.64072      .   S
    Zr15   O106      0.63565      .   S
    Zr33   O106      0.63565      .   S
    Zr14   O107      0.63565      .   S
    Zr32   O107      0.63565      .   S
    Zr12   O108      0.63750      .   S
    Zr36   O108      0.63750      .   S
    Zr13   O109      0.63749      .   S
    Zr37   O109      0.63749      .   S
    Zr33   O110      1.04530      .   S
    Zr3    O110      1.04530      .   S
    Zr32   O111      1.04529      .   S
    Zr2    O111      1.04529      .   S
    Zr2    O112      1.07570      .   S
    Zr36   O112      1.07570      .   S
    Zr2    O113      1.02006      .   S
    Zr26   O113      1.02006      .   S
    Zr3    O114      1.07571      .   S
    Zr37   O114      1.07571      .   S
    Zr3    O115      1.02006      .   S
    Zr27   O115      1.02006      .   S
    Zr24   O116      0.63581      .   S
    Zr10   O116      0.63581      .   S
    Zr25   O117      0.63581      .   S
    Zr11   O117      0.63581      .   S
    Zr27   O118      0.64080      .   S
    Zr11   O118      0.64080      .   S
    Zr26   O119      0.64081      .   S
    Zr10   O119      0.64081      .   S
    Zr0    O120      1.47180      .   S
    Zr2    O120      1.47180      .   S
    Zr1    O121      1.47180      .   S
    Zr3    O121      1.47180      .   S
    Zr4    O122      1.47181      .   S
    Zr6    O122      1.47181      .   S
    Zr5    O123      1.47177      .   S
    Zr7    O123      1.47177      .   S
    N124   O125      2.87044  1_545   S
    Zr4    O125      3.89923      .   S
    N124   O126      2.87045      .   S
    Zr1    O126      3.89924      .   S
    N127   O128      2.87044  1_445   S
    Zr5    O128      3.89924      .   S
    N127   O129      2.87044      .   S
    Zr0    O129      3.89922      .   S
    N130   O131      1.95285      .   S
    Zr14   O131      2.66956  1_545   S
    N130   O132      1.95469      .   S
    Zr12   O132      2.67131      .   S
    N133   O134      2.86413      .   S
    Zr2    O134      3.88746      .   S
    N133   O135      2.86412  1_556   S
    Zr6    O135      3.88743  1_455   S
    N136   O137      1.95156      .   S
    Zr10   O137      2.66862  1_556   S
    N136   O138      1.95638      .   S
    Zr8    O138      2.67256      .   S
    N139   O140      1.95115      .   S
    Zr11   O140      2.66821  1_556   S
    N139   O141      1.95703      .   S
    Zr9    O141      2.67371      .   S
    N142   O143      2.86415  1_556   S
    Zr7    O143      3.88749      .   S
    N142   O144      2.86411      .   S
    Zr3    O144      3.88741  1_655   S
    N145   O146      1.95083      .   S
    Zr17   O146      2.66744      .   S
    N145   O147      1.95606      .   S
    Zr19   O147      2.67583  1_554   S
    N148   O149      1.95608      .   S
    Zr18   O149      2.67585  1_554   S
    N148   O150      1.95079      .   S
    Zr16   O150      2.66739      .   S
    N151   O152      1.95464      .   S
    Zr13   O152      2.67137      .   S
    N151   O153      1.95285      .   S
    Zr15   O153      2.66956  1_545   S
    N154   O155      1.94923      .   S
    Zr22   O155      2.66550  1_565   S
    N154   O156      1.95846      .   S
    Zr20   O156      2.67512      .   S
    N157   O158      1.95846      .   S
    Zr21   O158      2.67512      .   S
    N157   O159      1.94922      .   S
    Zr23   O159      2.66551  1_565   S
