# CIF file generated by openbabel 2.4.90, see http://openbabel.sf.net
data_I
_chemical_name_common ''
_cell_length_a 17.202
_cell_length_b 18.548
_cell_length_c 18.556
_cell_angle_alpha 77.633
_cell_angle_beta 62.433
_cell_angle_gamma 62.424
_space_group_name_H-M_alt 'P 1'
_space_group_name_Hall 'P 1'
loop_
    _symmetry_equiv_pos_as_xyz
    x,y,z
loop_
    _atom_site_label
    _atom_site_type_symbol
    _atom_site_fract_x
    _atom_site_fract_y
    _atom_site_fract_z
    _atom_site_occupancy
    Zr0     Zr   0.31230   0.37526   0.37520   1.000
    Zr1     Zr   0.31230   0.37526   0.87521   1.000
    Zr2     Zr   0.31230   0.87525   0.37522   1.000
    Zr3     Zr   0.31230   0.87525   0.87521   1.000
    Zr4     Zr   0.81231   0.37526   0.37522   1.000
    Zr5     Zr   0.81231   0.37526   0.87521   1.000
    Zr6     Zr   0.81231   0.87525   0.37522   1.000
    Zr7     Zr   0.81231   0.87525   0.87521   1.000
    Zr8     Zr   0.18761   0.12495   0.12490   1.000
    Zr9     Zr   0.18761   0.12495   0.62488   1.000
    Zr10    Zr   0.18761   0.62494   0.12490   1.000
    Zr11    Zr   0.18761   0.62494   0.62488   1.000
    Zr12    Zr   0.68762   0.12495   0.12490   1.000
    Zr13    Zr   0.68762   0.12495   0.62488   1.000
    Zr14    Zr   0.68762   0.62494   0.12490   1.000
    Zr15    Zr   0.68762   0.62494   0.62488   1.000
    Zr16    Zr   0.06251   0.37504   0.37499   1.000
    Zr17    Zr   0.06251   0.37504   0.87490   1.000
    Zr18    Zr   0.06251   0.87503   0.37499   1.000
    Zr19    Zr   0.06251   0.87503   0.87497   1.000
    Zr20    Zr   0.56252   0.37504   0.37499   1.000
    Zr21    Zr   0.56252   0.37504   0.87497   1.000
    Zr22    Zr   0.56252   0.87503   0.37490   1.000
    Zr23    Zr   0.56252   0.87503   0.87497   1.000
    Zr24    Zr   0.43740   0.12516   0.12513   1.000
    Zr25    Zr   0.43740   0.12516   0.62512   1.000
    Zr26    Zr   0.43740   0.62516   0.12513   1.000
    Zr27    Zr   0.43740   0.62516   0.62512   1.000
    Zr28    Zr   0.93741   0.12516   0.12513   1.000
    Zr29    Zr   0.93741   0.12517   0.62512   1.000
    Zr30    Zr   0.93741   0.62516   0.12513   1.000
    Zr31    Zr   0.93741   0.62516   0.62512   1.000
    C32     C    0.49997   0.50009   0.75001   1.000
    C33     C    0.24996   0.75010   0.75002   1.000
    C34     C    0.49995   0.50010   0.00006   1.000
    C35     C    0.99997   0.50009   0.25005   1.000
    C36     C    0.99996   0.25010   0.00005   1.000
    C37     C    0.49995   0.00010   0.50006   1.000
    C38     C    0.49997   0.75009   0.50005   1.000
    C39     C    0.49997   0.50009   0.25005   1.000
    C40     C    0.74997   0.25010   0.25007   1.000
    C41     C    0.99997   0.75009   0.00005   1.000
    C42     C    0.49997   0.75009   0.00001   1.000
    C43     C    0.49996   0.25010   0.00005   1.000
    C44     C    0.74997   0.75010   0.25006   1.000
    C45     C    0.99995   0.50010   0.00006   1.000
    C46     C    0.24996   0.75009   0.25007   1.000
    C47     C    0.49995   0.50010   0.50006   1.000
    C48     C    0.24996   0.25010   0.25007   1.000
    C49     C    0.99997   0.00009   0.25005   1.000
    C50     C    0.99995   0.00010   0.50004   1.000
    C51     C    0.99996   0.25010   0.50005   1.000
    C52     C    0.99995   0.50010   0.50006   1.000
    C53     C    0.49997   0.00009   0.25005   1.000
    C54     C    0.49995   0.00010   0.00006   1.000
    C55     C    0.99995   0.00010   0.00006   1.000
    C56     C    0.49996   0.25010   0.50005   1.000
    C57     C    0.74997   0.75010   0.75005   1.000
    C58     C    0.24996   0.25010   0.75005   1.000
    C59     C    0.74997   0.25010   0.75005   1.000
    C60     C    0.99997   0.00009   0.75004   1.000
    C61     C    0.49997   0.00009   0.75004   1.000
    C62     C    0.99997   0.50009   0.75004   1.000
    C63     C    0.99997   0.75009   0.50000   1.000
    C64     C    0.56313   0.51677   0.73330   1.000
    O65     O    0.57119   0.47060   0.77942   1.000
    O66     O    0.52868   0.55601   0.69416   1.000
    O67     O    0.59123   0.55595   0.69410   1.000
    O68     O    0.54214   0.51119   0.73888   1.000
    C69     C    0.06312   0.51676   0.73334   1.000
    O70     O    0.04213   0.51119   0.73892   1.000
    O71     O    0.09122   0.55595   0.69412   1.000
    O72     O    0.02867   0.55601   0.69418   1.000
    O73     O    0.07118   0.47060   0.77944   1.000
    C74     C    0.56312   0.01677   0.73335   1.000
    O75     O    0.57119   0.97060   0.77946   1.000
    O76     O    0.54214   0.01119   0.73893   1.000
    O77     O    0.52867   0.05601   0.69418   1.000
    O78     O    0.59123   0.05596   0.69412   1.000
    C79     C    0.79636   0.76684   0.76681   1.000
    O80     O    0.85054   0.72071   0.72067   1.000
    O81     O    0.78098   0.76124   0.76121   1.000
    O82     O    0.72278   0.80601   0.80597   1.000
    O83     O    0.78522   0.80606   0.80603   1.000
    C84     C    0.79636   0.26684   0.76681   1.000
    O85     O    0.78098   0.26124   0.76121   1.000
    O86     O    0.72277   0.30602   0.80597   1.000
    O87     O    0.78522   0.30607   0.80603   1.000
    O88     O    0.85054   0.22071   0.72067   1.000
    C89     C    0.29635   0.76684   0.76679   1.000
    O90     O    0.28097   0.76124   0.76117   1.000
    O91     O    0.22276   0.80601   0.80596   1.000
    O92     O    0.28521   0.80607   0.80602   1.000
    O93     O    0.35053   0.72071   0.72066   1.000
    C94     C    0.56311   0.73342   0.01674   1.000
    O95     O    0.57118   0.77953   0.97055   1.000
    O96     O    0.59121   0.69420   0.05593   1.000
    O97     O    0.52866   0.69425   0.05599   1.000
    O98     O    0.54213   0.73899   0.01115   1.000
    C99     C    0.06310   0.73342   0.01674   1.000
    O100    O    0.04212   0.73899   0.01116   1.000
    O101    O    0.09120   0.69420   0.05593   1.000
    O102    O    0.02865   0.69425   0.05599   1.000
    O103    O    0.07117   0.77953   0.97055   1.000
    C104    C    0.43681   0.48342   0.26675   1.000
    O105    O    0.45780   0.48899   0.26117   1.000
    O106    O    0.47126   0.44418   0.30592   1.000
    O107    O    0.40870   0.44423   0.30597   1.000
    O108    O    0.42875   0.52959   0.22064   1.000
    C109    C    0.56312   0.01677   0.23336   1.000
    O110    O    0.54214   0.01119   0.23894   1.000
    O111    O    0.57119   0.97060   0.27945   1.000
    O112    O    0.52867   0.05601   0.19419   1.000
    O113    O    0.59123   0.05596   0.19413   1.000
    C114    C    0.92019   0.51672   0.51667   1.000
    O115    O    0.94673   0.51116   0.51112   1.000
    O116    O    0.85292   0.55590   0.55586   1.000
    O117    O    0.91536   0.55595   0.55592   1.000
    O118    O    0.95830   0.47057   0.47051   1.000
    C119    C    0.42018   0.51672   0.51669   1.000
    O120    O    0.35291   0.55590   0.55587   1.000
    O121    O    0.41535   0.55596   0.55593   1.000
    O122    O    0.44672   0.51116   0.51113   1.000
    O123    O    0.45830   0.47057   0.47053   1.000
    C124    C    0.93683   0.48342   0.26675   1.000
    O125    O    0.97127   0.44418   0.30592   1.000
    O126    O    0.90872   0.44423   0.30597   1.000
    O127    O    0.95781   0.48899   0.26117   1.000
    O128    O    0.92876   0.52959   0.22064   1.000
    C129    C    0.43682   0.98341   0.76673   1.000
    O130    O    0.42875   0.02959   0.72063   1.000
    O131    O    0.45780   0.98899   0.76115   1.000
    O132    O    0.47127   0.94417   0.80590   1.000
    O133    O    0.40871   0.94423   0.80596   1.000
    C134    C    0.93683   0.98341   0.26674   1.000
    O135    O    0.95781   0.98899   0.26116   1.000
    O136    O    0.97127   0.94417   0.30591   1.000
    O137    O    0.90872   0.94422   0.30597   1.000
    O138    O    0.92876   0.02959   0.22064   1.000
    C139    C    0.57973   0.48349   0.98342   1.000
    O140    O    0.55318   0.48904   0.98898   1.000
    O141    O    0.54161   0.52963   0.02958   1.000
    O142    O    0.64700   0.44431   0.94423   1.000
    O143    O    0.58456   0.44425   0.94417   1.000
    C144    C    0.07971   0.98348   0.48341   1.000
    O145    O    0.05317   0.98904   0.48897   1.000
    O146    O    0.14699   0.94430   0.44423   1.000
    O147    O    0.08454   0.94424   0.44418   1.000
    O148    O    0.04161   0.02963   0.52957   1.000
    C149    C    0.43682   0.26677   0.48337   1.000
    O150    O    0.45780   0.26120   0.48895   1.000
    O151    O    0.40872   0.30599   0.44417   1.000
    O152    O    0.47127   0.30594   0.44412   1.000
    O153    O    0.42875   0.22067   0.52955   1.000
    C154    C    0.93684   0.76676   0.98335   1.000
    O155    O    0.95782   0.76119   0.98893   1.000
    O156    O    0.90874   0.80599   0.94416   1.000
    O157    O    0.97129   0.80593   0.94410   1.000
    O158    O    0.92877   0.72066   0.02954   1.000
    C159    C    0.29635   0.26684   0.26682   1.000
    O160    O    0.22276   0.30601   0.30599   1.000
    O161    O    0.28521   0.30607   0.30604   1.000
    O162    O    0.28097   0.26124   0.26122   1.000
    O163    O    0.35053   0.22071   0.22069   1.000
    C164    C    0.56310   0.23344   0.01674   1.000
    O165    O    0.54212   0.23900   0.01116   1.000
    O166    O    0.59121   0.19421   0.05593   1.000
    O167    O    0.52865   0.19426   0.05599   1.000
    O168    O    0.57117   0.27954   0.97055   1.000
    C169    C    0.06312   0.51676   0.23336   1.000
    O170    O    0.04213   0.51119   0.23894   1.000
    O171    O    0.02867   0.55600   0.19419   1.000
    O172    O    0.09122   0.55595   0.19413   1.000
    O173    O    0.07118   0.47059   0.27947   1.000
    C174    C    0.43681   0.48342   0.76673   1.000
    O175    O    0.42875   0.52959   0.72063   1.000
    O176    O    0.45780   0.48900   0.76115   1.000
    O177    O    0.47126   0.44418   0.80590   1.000
    O178    O    0.40871   0.44424   0.80596   1.000
    C179    C    0.56313   0.51676   0.23336   1.000
    O180    O    0.52868   0.55600   0.19419   1.000
    O181    O    0.59123   0.55595   0.19413   1.000
    O182    O    0.54214   0.51119   0.23894   1.000
    O183    O    0.57119   0.47059   0.27947   1.000
    C184    C    0.43682   0.98341   0.26674   1.000
    O185    O    0.45780   0.98899   0.26116   1.000
    O186    O    0.42875   0.02959   0.22064   1.000
    O187    O    0.47126   0.94417   0.30589   1.000
    O188    O    0.40871   0.94423   0.30597   1.000
    C189    C    0.42018   0.01672   0.51669   1.000
    O190    O    0.45830   0.97057   0.47051   1.000
    O191    O    0.44672   0.01117   0.51113   1.000
    O192    O    0.35291   0.05591   0.55587   1.000
    O193    O    0.41535   0.05596   0.55593   1.000
    C194    C    0.70358   0.73335   0.23330   1.000
    O195    O    0.77717   0.69418   0.19413   1.000
    O196    O    0.71472   0.69413   0.19408   1.000
    O197    O    0.64940   0.77948   0.27942   1.000
    O198    O    0.71896   0.73895   0.23890   1.000
    C199    C    0.42018   0.51672   0.01669   1.000
    O200    O    0.45830   0.47057   0.97052   1.000
    O201    O    0.35291   0.55590   0.05588   1.000
    O202    O    0.41535   0.55595   0.05594   1.000
    O203    O    0.44672   0.51116   0.01113   1.000
    C204    C    0.93684   0.26677   0.98336   1.000
    O205    O    0.90873   0.30599   0.94417   1.000
    O206    O    0.97128   0.30594   0.94409   1.000
    O207    O    0.92876   0.22067   0.02955   1.000
    O208    O    0.95781   0.26120   0.98894   1.000
    C209    C    0.93683   0.48342   0.76673   1.000
    O210    O    0.95781   0.48899   0.76115   1.000
    O211    O    0.90872   0.44423   0.80596   1.000
    O212    O    0.97127   0.44418   0.80588   1.000
    O213    O    0.92876   0.52959   0.72063   1.000
    C214    C    0.70357   0.23336   0.23331   1.000
    O215    O    0.64940   0.27949   0.27945   1.000
    O216    O    0.71896   0.23895   0.23891   1.000
    O217    O    0.77716   0.19418   0.19414   1.000
    O218    O    0.71472   0.19413   0.19408   1.000
    C219    C    0.92019   0.51672   0.01668   1.000
    O220    O    0.94673   0.51116   0.01112   1.000
    O221    O    0.95830   0.47057   0.97050   1.000
    O222    O    0.85292   0.55590   0.05586   1.000
    O223    O    0.91536   0.55595   0.05592   1.000
    C224    C    0.07971   0.98348   0.98342   1.000
    O225    O    0.14699   0.94430   0.94423   1.000
    O226    O    0.08454   0.94425   0.94417   1.000
    O227    O    0.05317   0.98904   0.98898   1.000
    O228    O    0.04161   0.02963   0.02958   1.000
    C229    C    0.92019   0.01672   0.01669   1.000
    O230    O    0.94673   0.01116   0.01113   1.000
    O231    O    0.85292   0.05590   0.05588   1.000
    O232    O    0.91536   0.05596   0.05594   1.000
    O233    O    0.95830   0.97057   0.97052   1.000
    C234    C    0.07971   0.48348   0.48342   1.000
    O235    O    0.08454   0.44425   0.44418   1.000
    O236    O    0.14699   0.44430   0.44423   1.000
    O237    O    0.05317   0.48904   0.48898   1.000
    O238    O    0.04161   0.52963   0.52958   1.000
    C239    C    0.20356   0.23336   0.23331   1.000
    O240    O    0.14939   0.27949   0.27945   1.000
    O241    O    0.21895   0.23895   0.23891   1.000
    O242    O    0.27715   0.19419   0.19414   1.000
    O243    O    0.21470   0.19413   0.19408   1.000
    C244    C    0.57973   0.98348   0.98342   1.000
    O245    O    0.55318   0.98904   0.98898   1.000
    O246    O    0.54161   0.02963   0.02958   1.000
    O247    O    0.58456   0.94424   0.94417   1.000
    O248    O    0.64700   0.94430   0.94423   1.000
    C249    C    0.70357   0.23336   0.73330   1.000
    O250    O    0.64940   0.27949   0.77943   1.000
    O251    O    0.71896   0.23896   0.73890   1.000
    O252    O    0.77716   0.19419   0.69413   1.000
    O253    O    0.71472   0.19413   0.69407   1.000
    C254    C    0.29635   0.76684   0.26682   1.000
    O255    O    0.35053   0.72070   0.22068   1.000
    O256    O    0.22276   0.80601   0.30599   1.000
    O257    O    0.28521   0.80606   0.30604   1.000
    O258    O    0.28097   0.76124   0.26122   1.000
    C259    C    0.79636   0.26684   0.26683   1.000
    O260    O    0.85054   0.22071   0.22069   1.000
    O261    O    0.78098   0.26124   0.26123   1.000
    O262    O    0.72277   0.30601   0.30599   1.000
    O263    O    0.78522   0.30607   0.30605   1.000
    C264    C    0.42018   0.01672   0.01669   1.000
    O265    O    0.44672   0.01116   0.01113   1.000
    O266    O    0.35291   0.05590   0.05588   1.000
    O267    O    0.41535   0.05596   0.05594   1.000
    O268    O    0.45830   0.97057   0.97052   1.000
    C269    C    0.43682   0.26677   0.98335   1.000
    O270    O    0.45780   0.26120   0.98893   1.000
    O271    O    0.40872   0.30600   0.94415   1.000
    O272    O    0.47127   0.30594   0.94409   1.000
    O273    O    0.42875   0.22067   0.02954   1.000
    C274    C    0.56311   0.73342   0.51673   1.000
    O275    O    0.59121   0.69420   0.55592   1.000
    O276    O    0.52866   0.69425   0.55598   1.000
    O277    O    0.57118   0.77953   0.47053   1.000
    O278    O    0.54213   0.73899   0.51115   1.000
    C279    C    0.06311   0.01677   0.73335   1.000
    O280    O    0.07118   0.97060   0.77946   1.000
    O281    O    0.02867   0.05602   0.69418   1.000
    O282    O    0.09122   0.05596   0.69412   1.000
    O283    O    0.04213   0.01120   0.73893   1.000
    C284    C    0.57972   0.98348   0.48341   1.000
    O285    O    0.64700   0.94430   0.44423   1.000
    O286    O    0.58456   0.94424   0.44415   1.000
    O287    O    0.55318   0.98904   0.48898   1.000
    O288    O    0.54161   0.02963   0.52956   1.000
    C289    C    0.06310   0.73342   0.51670   1.000
    O290    O    0.04212   0.73899   0.51110   1.000
    O291    O    0.09120   0.69420   0.55590   1.000
    O292    O    0.02865   0.69425   0.55596   1.000
    O293    O    0.07117   0.77952   0.47054   1.000
    C294    C    0.92019   0.01672   0.51669   1.000
    O295    O    0.95830   0.97057   0.47053   1.000
    O296    O    0.85292   0.05591   0.55587   1.000
    O297    O    0.91536   0.05596   0.55593   1.000
    O298    O    0.94673   0.01117   0.51112   1.000
    C299    C    0.79636   0.76684   0.26682   1.000
    O300    O    0.72278   0.80601   0.30596   1.000
    O301    O    0.78522   0.80606   0.30604   1.000
    O302    O    0.78098   0.76124   0.26122   1.000
    O303    O    0.85054   0.72070   0.22068   1.000
    C304    C    0.29635   0.26684   0.76679   1.000
    O305    O    0.28097   0.26124   0.76120   1.000
    O306    O    0.22276   0.30601   0.80594   1.000
    O307    O    0.28521   0.30607   0.80602   1.000
    O308    O    0.35053   0.22071   0.72065   1.000
    C309    C    0.93683   0.98341   0.76672   1.000
    O310    O    0.90872   0.94423   0.80595   1.000
    O311    O    0.97127   0.94417   0.80589   1.000
    O312    O    0.95781   0.98899   0.76115   1.000
    O313    O    0.92876   0.02959   0.72062   1.000
    C314    C    0.06311   0.01677   0.23336   1.000
    O315    O    0.02867   0.05601   0.19419   1.000
    O316    O    0.09122   0.05596   0.19414   1.000
    O317    O    0.07118   0.97060   0.27947   1.000
    O318    O    0.04213   0.01119   0.23894   1.000
    C319    C    0.56310   0.23343   0.51674   1.000
    O320    O    0.54212   0.23900   0.51116   1.000
    O321    O    0.59121   0.19421   0.55592   1.000
    O322    O    0.52865   0.19426   0.55598   1.000
    O323    O    0.57117   0.27953   0.47056   1.000
    C324    C    0.43683   0.76676   0.98333   1.000
    O325    O    0.42876   0.72066   0.02954   1.000
    O326    O    0.45781   0.76119   0.98889   1.000
    O327    O    0.40872   0.80598   0.94415   1.000
    O328    O    0.47128   0.80593   0.94409   1.000
    C329    C    0.93683   0.26677   0.48337   1.000
    O330    O    0.90873   0.30600   0.44418   1.000
    O331    O    0.97128   0.30594   0.44412   1.000
    O332    O    0.92876   0.22067   0.52955   1.000
    O333    O    0.95781   0.26120   0.48895   1.000
    C334    C    0.20357   0.73336   0.73329   1.000
    O335    O    0.14939   0.77949   0.77943   1.000
    O336    O    0.21895   0.73895   0.73889   1.000
    O337    O    0.27716   0.69418   0.69412   1.000
    O338    O    0.21471   0.69413   0.69406   1.000
    C339    C    0.20357   0.73335   0.23331   1.000
    O340    O    0.14939   0.77948   0.27944   1.000
    O341    O    0.21895   0.73895   0.23891   1.000
    O342    O    0.27716   0.69418   0.19414   1.000
    O343    O    0.21471   0.69413   0.19408   1.000
    C344    C    0.06309   0.23343   0.01674   1.000
    O345    O    0.07116   0.27954   0.97053   1.000
    O346    O    0.04211   0.23900   0.01115   1.000
    O347    O    0.09120   0.19421   0.05593   1.000
    O348    O    0.02865   0.19426   0.05599   1.000
    C349    C    0.93684   0.76676   0.48335   1.000
    O350    O    0.95782   0.76119   0.48893   1.000
    O351    O    0.92876   0.72066   0.52953   1.000
    O352    O    0.97128   0.80593   0.44411   1.000
    O353    O    0.90873   0.80598   0.44417   1.000
    C354    C    0.70358   0.73335   0.73329   1.000
    O355    O    0.71896   0.73895   0.73889   1.000
    O356    O    0.64940   0.77949   0.77943   1.000
    O357    O    0.71472   0.69413   0.69406   1.000
    O358    O    0.77717   0.69418   0.69412   1.000
    C359    C    0.20356   0.23336   0.73330   1.000
    O360    O    0.14939   0.27949   0.77941   1.000
    O361    O    0.27715   0.19419   0.69413   1.000
    O362    O    0.21471   0.19413   0.69407   1.000
    O363    O    0.21895   0.23895   0.73890   1.000
    C364    C    0.43683   0.76676   0.48336   1.000
    O365    O    0.40872   0.80599   0.44418   1.000
    O366    O    0.47128   0.80593   0.44410   1.000
    O367    O    0.45781   0.76119   0.48894   1.000
    O368    O    0.42875   0.72066   0.52954   1.000
    C369    C    0.57973   0.48349   0.48342   1.000
    O370    O    0.64700   0.44430   0.44424   1.000
    O371    O    0.58455   0.44425   0.44418   1.000
    O372    O    0.55318   0.48904   0.48898   1.000
    O373    O    0.54161   0.52963   0.52958   1.000
    C374    C    0.06309   0.23343   0.51672   1.000
    O375    O    0.09120   0.19421   0.55591   1.000
    O376    O    0.02865   0.19426   0.55597   1.000
    O377    O    0.04212   0.23900   0.51115   1.000
    O378    O    0.07116   0.27953   0.47055   1.000
    C379    C    0.07972   0.48349   0.98340   1.000
    O380    O    0.05318   0.48904   0.98897   1.000
    O381    O    0.04161   0.52963   0.02956   1.000
    O382    O    0.14699   0.44431   0.94422   1.000
    O383    O    0.08454   0.44425   0.94414   1.000
loop_
    _geom_bond_atom_site_label_1
    _geom_bond_atom_site_label_2
    _geom_bond_distance
    _geom_bond_site_symmetry_2
    _ccdc_geom_bond_type
    C64    O65       1.08205      .   S
    Zr21   O65       2.22738      .   S
    C64    O66       1.08683      .   S
    Zr27   O66       2.24604      .   S
    C64    O67       1.03180      .   S
    Zr15   O67       2.30773      .   S
    C64    O68       0.38355      .   S
    C32    O68       0.76984      .   S
    C69    O70       0.38349      .   S
    C62    O70       0.76976  1_655   S
    C69    O71       1.03194      .   S
    Zr11   O71       2.30778      .   S
    C69    O72       1.08709      .   S
    Zr31   O72       2.24615  1_655   S
    C69    O73       1.08175      .   S
    Zr17   O73       2.22640      .   S
    C74    O75       1.08200  1_545   S
    Zr23   O75       2.22705      .   S
    C74    O76       0.38353      .   S
    C61    O76       0.76993      .   S
    C74    O77       1.08714      .   S
    Zr25   O77       2.24640      .   S
    C74    O78       1.03196      .   S
    Zr13   O78       2.30781      .   S
    C79    O80       1.08194      .   S
    Zr31   O80       2.22690      .   S
    C79    O81       0.38354      .   S
    C57    O81       0.76993      .   S
    C79    O82       1.08705      .   S
    Zr23   O82       2.24616      .   S
    C79    O83       1.03177      .   S
    Zr7    O83       2.30753      .   S
    C84    O85       0.38352      .   S
    C59    O85       0.76989      .   S
    C84    O86       1.08705      .   S
    Zr21   O86       2.24616      .   S
    C84    O87       1.03179      .   S
    Zr5    O87       2.30758      .   S
    C84    O88       1.08193      .   S
    Zr29   O88       2.22687      .   S
    C89    O90       0.38369      .   S
    C33    O90       0.76990      .   S
    C89    O91       1.08710      .   S
    Zr19   O91       2.24618      .   S
    C89    O92       1.03190      .   S
    Zr3    O92       2.30764      .   S
    C89    O93       1.08183      .   S
    Zr27   O93       2.22678      .   S
    C94    O95       1.08210  1_554   S
    Zr23   O95       2.22715      .   S
    C94    O96       1.03205      .   S
    Zr14   O96       2.30788      .   S
    C94    O97       1.08719      .   S
    Zr26   O97       2.24654      .   S
    C94    O98       0.38366      .   S
    C42    O98       0.77034      .   S
    C99    O100      0.38350      .   S
    C41    O100      0.76984  1_655   S
    C99    O101      1.03205      .   S
    Zr10   O101      2.30789      .   S
    C99    O102      1.08714      .   S
    Zr30   O102      2.24634  1_655   S
    C99    O103      1.08210  1_554   S
    Zr19   O103      2.22714      .   S
    C104   O105      0.38354      .   S
    C39    O105      0.76989      .   S
    C104   O106      1.08712      .   S
    Zr20   O106      2.24638      .   S
    C104   O107      1.03189      .   S
    Zr0    O107      2.30776      .   S
    C104   O108      1.08197      .   S
    Zr26   O108      2.22704      .   S
    C109   O110      0.38353      .   S
    C53    O110      0.76993      .   S
    C109   O111      1.08175  1_545   S
    Zr22   O111      2.22640      .   S
    C109   O112      1.08713      .   S
    Zr24   O112      2.24639      .   S
    C109   O113      1.03194      .   S
    Zr12   O113      2.30779      .   S
    C114   O115      0.38356      .   S
    C52    O115      0.76981      .   S
    C114   O116      1.03199      .   S
    Zr15   O116      2.30775      .   S
    C114   O117      1.08728      .   S
    Zr31   O117      2.24671      .   S
    C114   O118      1.08206      .   S
    Zr16   O118      2.22677  1_455   S
    C119   O120      1.03192      .   S
    Zr11   O120      2.30773      .   S
    C119   O121      1.08715      .   S
    Zr27   O121      2.24658      .   S
    C119   O122      0.38356      .   S
    C47    O122      0.76990      .   S
    C119   O123      1.08200      .   S
    Zr20   O123      2.22707      .   S
    C124   O125      1.08708      .   S
    Zr16   O125      2.24619  1_455   S
    C124   O126      1.03192      .   S
    Zr4    O126      2.30780      .   S
    C124   O127      0.38349      .   S
    C35    O127      0.76976      .   S
    C124   O128      1.08197      .   S
    Zr30   O128      2.22705      .   S
    C129   O130      1.08204  1_565   S
    Zr25   O130      2.22710      .   S
    C129   O131      0.38353      .   S
    C61    O131      0.76993  1_545   S
    C129   O132      1.08711      .   S
    Zr23   O132      2.24628      .   S
    C129   O133      1.03195      .   S
    Zr3    O133      2.30781      .   S
    C134   O135      0.38348      .   S
    C49    O135      0.76979  1_545   S
    C134   O136      1.08710      .   S
    Zr18   O136      2.24620  1_455   S
    C134   O137      1.03195      .   S
    Zr6    O137      2.30782      .   S
    C134   O138      1.08204  1_565   S
    Zr28   O138      2.22710      .   S
    C139   O140      0.38358      .   S
    C34    O140      0.76991  1_554   S
    C139   O141      1.08205  1_556   S
    Zr26   O141      2.22698      .   S
    C139   O142      1.03201      .   S
    Zr5    O142      2.30792      .   S
    C139   O143      1.08723      .   S
    Zr21   O143      2.24664      .   S
    C144   O145      0.38356      .   S
    C50    O145      0.76976  1_645   S
    C144   O146      1.03196      .   S
    Zr2    O146      2.30792      .   S
    C144   O147      1.08708      .   S
    Zr18   O147      2.24646      .   S
    C144   O148      1.08210  1_565   S
    Zr29   O148      2.22706  1_655   S
    C149   O150      0.38354      .   S
    C56    O150      0.76990      .   S
    C149   O151      1.03206      .   S
    Zr0    O151      2.30808      .   S
    C149   O152      1.08715      .   S
    Zr20   O152      2.24648      .   S
    C149   O153      1.08199      .   S
    Zr25   O153      2.22702      .   S
    C154   O155      0.38349      .   S
    C41    O155      0.76984  1_554   S
    C154   O156      1.03202      .   S
    Zr7    O156      2.30786      .   S
    C154   O157      1.08713      .   S
    Zr19   O157      2.24630  1_455   S
    C154   O158      1.08210  1_556   S
    Zr30   O158      2.22715      .   S
    C159   O160      1.08706      .   S
    Zr16   O160      2.24617      .   S
    C159   O161      1.03170      .   S
    Zr0    O161      2.30726      .   S
    C159   O162      0.38356      .   S
    C48    O162      0.76993      .   S
    C159   O163      1.08193      .   S
    Zr24   O163      2.22694      .   S
    C164   O165      0.38353      .   S
    C43    O165      0.76993      .   S
    C164   O166      1.03207      .   S
    Zr12   O166      2.30793      .   S
    C164   O167      1.08720      .   S
    Zr24   O167      2.24654      .   S
    C164   O168      1.08210  1_554   S
    Zr21   O168      2.22711      .   S
    C169   O170      0.38350      .   S
    C35    O170      0.76976  1_655   S
    C169   O171      1.08708      .   S
    Zr30   O171      2.24621  1_655   S
    C169   O172      1.03192      .   S
    Zr10   O172      2.30778      .   S
    C169   O173      1.08198      .   S
    Zr16   O173      2.22705      .   S
    C174   O175      1.08198      .   S
    Zr27   O175      2.22700      .   S
    C174   O176      0.38351      .   S
    C32    O176      0.76979      .   S
    C174   O177      1.08711      .   S
    Zr21   O177      2.24630      .   S
    C174   O178      1.03193      .   S
    Zr1    O178      2.30780      .   S
    C179   O180      1.08713      .   S
    Zr26   O180      2.24641      .   S
    C179   O181      1.03192      .   S
    Zr14   O181      2.30778      .   S
    C179   O182      0.38354      .   S
    C39    O182      0.76989      .   S
    C179   O183      1.08198      .   S
    Zr20   O183      2.22704      .   S
    C184   O185      0.38353      .   S
    C53    O185      0.76993  1_545   S
    C184   O186      1.08204  1_565   S
    Zr24   O186      2.22710      .   S
    C184   O187      1.08683      .   S
    Zr22   O187      2.24543      .   S
    C184   O188      1.03195      .   S
    Zr2    O188      2.30781      .   S
    C189   O190      1.08234  1_545   S
    Zr22   O190      2.22781      .   S
    C189   O191      0.38357      .   S
    C37    O191      0.76990      .   S
    C189   O192      1.03196      .   S
    Zr9    O192      2.30776      .   S
    C189   O193      1.08719      .   S
    Zr25   O193      2.24658      .   S
    C194   O195      1.08705      .   S
    Zr30   O195      2.24612      .   S
    C194   O196      1.03177      .   S
    Zr14   O196      2.30762      .   S
    C194   O197      1.08170      .   S
    Zr22   O197      2.22609      .   S
    C194   O198      0.38353      .   S
    C44    O198      0.76992      .   S
    C199   O200      1.08210  1_554   S
    Zr21   O200      2.22715      .   S
    C199   O201      1.03198      .   S
    Zr10   O201      2.30776      .   S
    C199   O202      1.08722      .   S
    Zr26   O202      2.24658      .   S
    C199   O203      0.38356      .   S
    C34    O203      0.76990      .   S
    C204   O205      1.03204      .   S
    Zr5    O205      2.30792      .   S
    C204   O206      1.08723      .   S
    Zr17   O206      2.24645  1_455   S
    C204   O207      1.08208  1_556   S
    Zr28   O207      2.22709      .   S
    C204   O208      0.38346      .   S
    C36    O208      0.76975  1_554   S
    C209   O210      0.38349      .   S
    C62    O210      0.76976      .   S
    C209   O211      1.03193      .   S
    Zr5    O211      2.30779      .   S
    C209   O212      1.08681      .   S
    Zr17   O212      2.24535  1_455   S
    C209   O213      1.08198      .   S
    Zr31   O213      2.22700      .   S
    C214   O215      1.08192      .   S
    Zr20   O215      2.22685      .   S
    C214   O216      0.38354      .   S
    C40    O216      0.76993      .   S
    C214   O217      1.08706      .   S
    Zr28   O217      2.24613      .   S
    C214   O218      1.03178      .   S
    Zr12   O218      2.30761      .   S
    C219   O220      0.38355      .   S
    C45    O220      0.76980      .   S
    C219   O221      1.08224  1_554   S
    Zr17   O221      2.22763  1_455   S
    C219   O222      1.03195      .   S
    Zr14   O222      2.30779      .   S
    C219   O223      1.08717      .   S
    Zr30   O223      2.24690      .   S
    C224   O225      1.03204      .   S
    Zr3    O225      2.30795      .   S
    C224   O226      1.08726      .   S
    Zr19   O226      2.24665      .   S
    C224   O227      0.38353      .   S
    C55    O227      0.76976  1_644   S
    C224   O228      1.08212  1_566   S
    Zr28   O228      2.22702  1_655   S
    C229   O230      0.38353      .   S
    C55    O230      0.76975      .   S
    C229   O231      1.03200      .   S
    Zr12   O231      2.30780      .   S
    C229   O232      1.08723      .   S
    Zr28   O232      2.24664      .   S
    C229   O233      1.08216  1_544   S
    Zr19   O233      2.22718  1_455   S
    C234   O235      1.08713      .   S
    Zr16   O235      2.24646      .   S
    C234   O236      1.03201      .   S
    Zr0    O236      2.30792      .   S
    C234   O237      0.38353      .   S
    C52    O237      0.76978  1_655   S
    C234   O238      1.08199      .   S
    Zr31   O238      2.22697  1_655   S
    C239   O240      1.08193      .   S
    Zr16   O240      2.22687      .   S
    C239   O241      0.38354      .   S
    C48    O241      0.76990      .   S
    C239   O242      1.08706      .   S
    Zr24   O242      2.24613      .   S
    C239   O243      1.03180      .   S
    Zr8    O243      2.30759      .   S
    C244   O245      0.38358      .   S
    C54    O245      0.76989  1_544   S
    C244   O246      1.08212  1_566   S
    Zr24   O246      2.22705      .   S
    C244   O247      1.08727      .   S
    Zr23   O247      2.24666      .   S
    C244   O248      1.03204      .   S
    Zr7    O248      2.30795      .   S
    C249   O250      1.08191      .   S
    Zr21   O250      2.22684      .   S
    C249   O251      0.38356      .   S
    C59    O251      0.76992      .   S
    C249   O252      1.08706      .   S
    Zr29   O252      2.24612      .   S
    C249   O253      1.03181      .   S
    Zr13   O253      2.30766      .   S
    C254   O255      1.08194      .   S
    Zr26   O255      2.22691      .   S
    C254   O256      1.08706      .   S
    Zr18   O256      2.24618      .   S
    C254   O257      1.03177      .   S
    Zr2    O257      2.30752      .   S
    C254   O258      0.38352      .   S
    C46    O258      0.76989      .   S
    C259   O260      1.08195      .   S
    Zr28   O260      2.22696      .   S
    C259   O261      0.38353      .   S
    C40    O261      0.76993      .   S
    C259   O262      1.08705      .   S
    Zr20   O262      2.24616      .   S
    C259   O263      1.03176      .   S
    Zr4    O263      2.30748      .   S
    C264   O265      0.38357      .   S
    C54    O265      0.76988      .   S
    C264   O266      1.03200      .   S
    Zr8    O266      2.30780      .   S
    C264   O267      1.08724      .   S
    Zr24   O267      2.24666      .   S
    C264   O268      1.08215  1_544   S
    Zr23   O268      2.22720      .   S
    C269   O270      0.38362      .   S
    C43    O270      0.77003  1_554   S
    C269   O271      1.03209      .   S
    Zr1    O271      2.30762      .   S
    C269   O272      1.08722      .   S
    Zr21   O272      2.24647      .   S
    C269   O273      1.08217  1_556   S
    Zr24   O273      2.22720      .   S
    C274   O275      1.03197      .   S
    Zr15   O275      2.30781      .   S
    C274   O276      1.08717      .   S
    Zr27   O276      2.24653      .   S
    C274   O277      1.08219      .   S
    Zr22   O277      2.22775      .   S
    C274   O278      0.38355      .   S
    C38    O278      0.76988      .   S
    C279   O280      1.08200  1_545   S
    Zr19   O280      2.22706      .   S
    C279   O281      1.08708      .   S
    Zr29   O281      2.24620  1_655   S
    C279   O282      1.03196      .   S
    Zr9    O282      2.30781      .   S
    C279   O283      0.38348      .   S
    C60    O283      0.76980  1_655   S
    C284   O285      1.03196      .   S
    Zr6    O285      2.30792      .   S
    C284   O286      1.08737      .   S
    Zr22   O286      2.24738      .   S
    C284   O287      0.38353      .   S
    C37    O287      0.76986  1_545   S
    C284   O288      1.08194  1_565   S
    Zr25   O288      2.22723      .   S
    C289   O290      0.38373      .   S
    C63    O290      0.76970  1_655   S
    C289   O291      1.03219      .   S
    Zr11   O291      2.30802      .   S
    C289   O292      1.08719      .   S
    Zr31   O292      2.24637  1_655   S
    C289   O293      1.08180      .   S
    Zr18   O293      2.22675      .   S
    C294   O295      1.08208  1_545   S
    Zr18   O295      2.22706  1_455   S
    C294   O296      1.03196      .   S
    Zr13   O296      2.30776      .   S
    C294   O297      1.08720      .   S
    Zr29   O297      2.24660      .   S
    C294   O298      0.38351      .   S
    C50    O298      0.76971      .   S
    C299   O300      1.08695      .   S
    Zr22   O300      2.24602      .   S
    C299   O301      1.03176      .   S
    Zr6    O301      2.30749      .   S
    C299   O302      0.38354      .   S
    C44    O302      0.76993      .   S
    C299   O303      1.08194      .   S
    Zr30   O303      2.22691      .   S
    C304   O305      0.38340      .   S
    C58    O305      0.76977      .   S
    C304   O306      1.08700      .   S
    Zr17   O306      2.24607      .   S
    C304   O307      1.03190      .   S
    Zr1    O307      2.30778      .   S
    C304   O308      1.08195      .   S
    Zr25   O308      2.22660      .   S
    C309   O310      1.03197      .   S
    Zr7    O310      2.30783      .   S
    C309   O311      1.08710      .   S
    Zr19   O311      2.24620  1_455   S
    C309   O312      0.38350      .   S
    C60    O312      0.76982  1_545   S
    C309   O313      1.08204  1_565   S
    Zr29   O313      2.22699      .   S
    C314   O315      1.08711      .   S
    Zr28   O315      2.24623  1_655   S
    C314   O316      1.03196      .   S
    Zr8    O316      2.30781      .   S
    C314   O317      1.08204  1_545   S
    Zr18   O317      2.22710      .   S
    C314   O318      0.38349      .   S
    C49    O318      0.76980  1_655   S
    C319   O320      0.38357      .   S
    C56    O320      0.76993      .   S
    C319   O321      1.03196      .   S
    Zr13   O321      2.30775      .   S
    C319   O322      1.08716      .   S
    Zr25   O322      2.24651      .   S
    C319   O323      1.08198      .   S
    Zr20   O323      2.22699      .   S
    C324   O325      1.08225  1_556   S
    Zr26   O325      2.22726      .   S
    C324   O326      0.38332      .   S
    C42    O326      0.76999  1_554   S
    C324   O327      1.03185      .   S
    Zr3    O327      2.30770      .   S
    C324   O328      1.08713      .   S
    Zr23   O328      2.24647      .   S
    C329   O330      1.03198      .   S
    Zr4    O330      2.30786      .   S
    C329   O331      1.08709      .   S
    Zr16   O331      2.24627  1_455   S
    C329   O332      1.08199      .   S
    Zr29   O332      2.22702      .   S
    C329   O333      0.38350      .   S
    C51    O333      0.76977      .   S
    C334   O335      1.08191      .   S
    Zr19   O335      2.22682      .   S
    C334   O336      0.38344      .   S
    C33    O336      0.76965      .   S
    C334   O337      1.08705      .   S
    Zr27   O337      2.24612      .   S
    C334   O338      1.03181      .   S
    Zr11   O338      2.30771      .   S
    C339   O340      1.08192      .   S
    Zr18   O340      2.22689      .   S
    C339   O341      0.38356      .   S
    C46    O341      0.76993      .   S
    C339   O342      1.08706      .   S
    Zr26   O342      2.24612      .   S
    C339   O343      1.03178      .   S
    Zr10   O343      2.30760      .   S
    C344   O345      1.08226  1_554   S
    Zr17   O345      2.22778      .   S
    C344   O346      0.38353      .   S
    C36    O346      0.76981  1_655   S
    C344   O347      1.03207      .   S
    Zr8    O347      2.30793      .   S
    C344   O348      1.08715      .   S
    Zr28   O348      2.24634  1_655   S
    C349   O350      0.38343      .   S
    C63    O350      0.76940      .   S
    C349   O351      1.08195      .   S
    Zr31   O351      2.22719      .   S
    C349   O352      1.08707      .   S
    Zr18   O352      2.24626  1_455   S
    C349   O353      1.03191      .   S
    Zr6    O353      2.30782      .   S
    C354   O355      0.38353      .   S
    C57    O355      0.76993      .   S
    C354   O356      1.08191      .   S
    Zr23   O356      2.22682      .   S
    C354   O357      1.03180      .   S
    Zr15   O357      2.30768      .   S
    C354   O358      1.08705      .   S
    Zr31   O358      2.24612      .   S
    C359   O360      1.08172      .   S
    Zr17   O360      2.22620      .   S
    C359   O361      1.08705      .   S
    Zr25   O361      2.24612      .   S
    C359   O362      1.03180      .   S
    Zr9    O362      2.30763      .   S
    C359   O363      0.38356      .   S
    C58    O363      0.76993      .   S
    C364   O365      1.03198      .   S
    Zr2    O365      2.30789      .   S
    C364   O366      1.08726      .   S
    Zr22   O366      2.24662      .   S
    C364   O367      0.38354      .   S
    C38    O367      0.76988      .   S
    C364   O368      1.08198      .   S
    Zr27   O368      2.22703      .   S
    C369   O370      1.03197      .   S
    Zr4    O370      2.30791      .   S
    C369   O371      1.08713      .   S
    Zr20   O371      2.24654      .   S
    C369   O372      0.38357      .   S
    C47    O372      0.76991      .   S
    C369   O373      1.08197      .   S
    Zr27   O373      2.22698      .   S
    C374   O375      1.03191      .   S
    Zr9    O375      2.30798      .   S
    C374   O376      1.08709      .   S
    Zr29   O376      2.24635  1_655   S
    C374   O377      0.38344      .   S
    C51    O377      0.76971  1_655   S
    C374   O378      1.08190      .   S
    Zr16   O378      2.22690      .   S
    C379   O380      0.38349      .   S
    C45    O380      0.76973  1_654   S
    C379   O381      1.08199  1_556   S
    Zr30   O381      2.22730  1_655   S
    C379   O382      1.03194      .   S
    Zr1    O382      2.30790      .   S
    C379   O383      1.08732      .   S
    Zr17   O383      2.24724      .   S
