# CIF file generated by openbabel 2.4.90, see http://openbabel.sf.net
data_I
_chemical_name_common ''
_cell_length_a 12.889
_cell_length_b 14.509
_cell_length_c 14.526
_cell_angle_alpha 78.448
_cell_angle_beta 63.448
_cell_angle_gamma 63.512
_space_group_name_H-M_alt 'P 1'
_space_group_name_Hall 'P 1'
loop_
    _symmetry_equiv_pos_as_xyz
    x,y,z
loop_
    _atom_site_label
    _atom_site_type_symbol
    _atom_site_fract_x
    _atom_site_fract_y
    _atom_site_fract_z
    _atom_site_occupancy
    Cu0     Cu   0.34548   0.59131   0.51871   1.000
    Cu1     Cu   0.18673   0.02101   0.90840   1.000
    Cu2     Cu   0.11383   0.98035   0.09188   1.000
    Cu3     Cu   0.45779   0.40771   0.47864   1.000
    C4      C    0.58862   0.53643   0.35994   1.000
    C5      C    0.09776   0.86045   0.97433   1.000
    C6      C    0.48834   0.46232   0.63598   1.000
    C7      C    0.93178   0.14159   0.02443   1.000
    C8      C    0.19897   0.13809   0.03800   1.000
    C9      C    0.32268   0.52437   0.35911   1.000
    C10     C    0.37426   0.86224   0.96365   1.000
    C11     C    0.20793   0.47489   0.64022   1.000
    O12     O    0.59549   0.44493   0.36406   1.000
    O13     O    0.49884   0.60955   0.42270   1.000
    O14     O    0.05680   0.88686   0.06752   1.000
    O15     O    0.15588   0.90225   0.89386   1.000
    O16     O    0.40734   0.55379   0.63196   1.000
    O17     O    0.53478   0.38912   0.57340   1.000
    O18     O    0.01197   0.11501   0.93145   1.000
    O19     O    0.94975   0.09983   0.10531   1.000
    O20     O    0.21032   0.13430   0.94642   1.000
    O21     O    0.17150   0.07532   0.11105   1.000
    O22     O    0.37606   0.43125   0.38559   1.000
    O23     O    0.29978   0.60515   0.40036   1.000
    O24     O    0.28900   0.86627   0.05490   1.000
    O25     O    0.35833   0.92530   0.89052   1.000
    O26     O    0.19412   0.56802   0.61330   1.000
    O27     O    0.30739   0.39412   0.59846   1.000
    Og28    Og   0.62269   0.54528   0.33159   1.000
    Og29    Og   0.09167   0.83052   0.96951   1.000
    Og30    Og   0.50286   0.45362   0.66425   1.000
    Og31    Og   0.89091   0.17157   0.02895   1.000
    Og32    Og   0.20473   0.16632   0.04680   1.000
    Og33    Og   0.31149   0.52909   0.32937   1.000
    Og34    Og   0.41713   0.83385   0.95490   1.000
    Og35    Og   0.17176   0.47024   0.67031   1.000
loop_
    _geom_bond_atom_site_label_1
    _geom_bond_atom_site_label_2
    _geom_bond_distance
    _geom_bond_site_symmetry_2
    _ccdc_geom_bond_type
    C7     O19       1.27830      .   S
    C7     O18       1.28304  1_654   S
    C8     O21       1.28275      .   S
    C8     O20       1.28148  1_554   S
    O24    Cu2       2.01597      .   S
    O24    C10       1.28041  1_554   S
    O14    Cu2       1.95451      .   S
    O14    C5        1.28309  1_554   S
    Cu2    O19       2.00301  1_465   S
    Cu2    O21       1.94436  1_565   S
    C9     O22       1.28306      .   S
    C9     O23       1.27837      .   S
    C4     O12       1.28133      .   S
    C4     O13       1.28246      .   S
    O12    Cu3       2.01641      .   S
    O22    Cu3       1.95461      .   S
    O23    Cu0       2.00111      .   S
    O13    Cu0       1.94324      .   S
    Cu3    O17       1.94565      .   S
    Cu3    O27       2.00333      .   S
    Cu0    O26       1.95295      .   S
    Cu0    O16       2.01620      .   S
    O17    C6        1.28285      .   S
    O27    C11       1.27830      .   S
    O26    C11       1.28312      .   S
    O16    C6        1.28149      .   S
    O25    Cu1       1.94391  1_565   S
    O25    C10       1.28288      .   S
    O15    Cu1       2.00105  1_565   S
    O15    C5        1.27816      .   S
    Cu1    O18       1.95303      .   S
    Cu1    O20       2.01456      .   S
    Cu3    Cu0       2.44095      .   S
    Cu1    Cu2       2.44135  1_546   S
    C4     Og28      0.49628      .   S
    C5     Og29      0.49715      .   S
    C6     Og30      0.49641      .   S
    C7     Og31      0.49713      .   S
    C8     Og32      0.49630      .   S
    C9     Og33      0.49715      .   S
    C10    Og34      0.49632      .   S
    C11    Og35      0.49701      .   S
