# CIF file generated by openbabel 2.4.90, see http://openbabel.sf.net
data_I
_chemical_name_common ''
_cell_length_a 12.889
_cell_length_b 14.509
_cell_length_c 14.526
_cell_angle_alpha 78.448
_cell_angle_beta 63.448
_cell_angle_gamma 63.512
_space_group_name_H-M_alt 'P 1'
_space_group_name_Hall 'P 1'
loop_
    _symmetry_equiv_pos_as_xyz
    x,y,z
loop_
    _atom_site_label
    _atom_site_type_symbol
    _atom_site_fract_x
    _atom_site_fract_y
    _atom_site_fract_z
    _atom_site_occupancy
    N0      N    0.24703   0.43411   0.13202   1.000
    N1      N    0.62977   0.36958   0.93247   1.000
    N2      N    0.93369   0.63156   0.06389   1.000
    N3      N    0.81411   0.56575   0.86960   1.000
    Zr4     Zr   0.15049   0.00063   0.00012   1.000
    O5      O    0.08083   0.86210   0.00781   1.000
    O6      O    0.95031   0.13935   0.99098   1.000
    O7      O    0.38842   0.84667   0.95509   1.000
    O8      O    0.18891   0.15395   0.04587   1.000
    Zr9     Zr   0.40176   0.49950   0.49875   1.000
    O10     O    0.19283   0.50817   0.63811   1.000
    O11     O    0.48585   0.45446   0.65209   1.000
    O12     O    0.33911   0.49114   0.36100   1.000
    O13     O    0.59423   0.54506   0.34470   1.000
loop_
    _geom_bond_atom_site_label_1
    _geom_bond_atom_site_label_2
    _geom_bond_distance
    _geom_bond_site_symmetry_2
    _ccdc_geom_bond_type
    Zr4    O5        2.50788  1_545   S
    N2     O5        4.31665  1_655   S
    Zr4    O6        2.50853  1_454   S
    N1     O6        4.31752      .   S
    Zr4    O7        2.73922  1_544   S
    N3     O7        4.92407      .   S
    Zr4    O8        2.73933      .   S
    N0     O8        4.92363      .   S
    Zr9    O10       2.50840      .   S
    N3     O10       4.31794  1_655   S
    Zr9    O11       2.73986      .   S
    N1     O11       4.92479      .   S
    Zr9    O12       2.50979      .   S
    N0     O12       4.32019      .   S
    Zr9    O13       2.73976      .   S
    N2     O13       4.92435      .   S
