# CIF file generated by openbabel 2.4.90, see http://openbabel.sf.net
data_I
_chemical_name_common ''
_cell_length_a 14.07
_cell_length_b 15.811
_cell_length_c 26.043
_cell_angle_alpha 90.002
_cell_angle_beta 89.998
_cell_angle_gamma 93.291
_space_group_name_H-M_alt 'P 1'
_space_group_name_Hall 'P 1'
loop_
    _symmetry_equiv_pos_as_xyz
    x,y,z
loop_
    _atom_site_label
    _atom_site_type_symbol
    _atom_site_fract_x
    _atom_site_fract_y
    _atom_site_fract_z
    _atom_site_occupancy
    Cd0     Cd   0.62083   0.99613   0.97006   1.000
    Cd1     Cd   0.12673   0.50451   0.53238   1.000
    Cd2     Cd   0.37916   0.50391   0.47005   1.000
    Cd3     Cd   0.12672   0.00450   0.96762   1.000
    Cd4     Cd   0.37915   0.00388   0.02993   1.000
    Cd5     Cd   0.87325   0.49550   0.46761   1.000
    Cd6     Cd   0.62082   0.49611   0.52994   1.000
    Cd7     Cd   0.87325   0.99553   0.03237   1.000
