# CIF file generated by openbabel 2.4.90, see http://openbabel.sf.net
data_I
_chemical_name_common ''
_cell_length_a 14.07
_cell_length_b 15.811
_cell_length_c 26.043
_cell_angle_alpha 90.002
_cell_angle_beta 89.998
_cell_angle_gamma 93.291
_space_group_name_H-M_alt 'P 1'
_space_group_name_Hall 'P 1'
loop_
    _symmetry_equiv_pos_as_xyz
    x,y,z
loop_
    _atom_site_label
    _atom_site_type_symbol
    _atom_site_fract_x
    _atom_site_fract_y
    _atom_site_fract_z
    _atom_site_occupancy
    Zr0     Zr   0.87325   0.99553   0.03237   1.000
    Zr1     Zr   0.62083   0.99613   0.97006   1.000
    Zr2     Zr   0.12673   0.50451   0.53238   1.000
    Zr3     Zr   0.37916   0.50391   0.47005   1.000
    Zr4     Zr   0.12672   0.00450   0.96762   1.000
    Zr5     Zr   0.37915   0.00388   0.02993   1.000
    Zr6     Zr   0.87325   0.49550   0.46761   1.000
    Zr7     Zr   0.62082   0.49611   0.52994   1.000
    N8      N    0.36650   0.18598   0.71948   1.000
    O9      O    0.26065   0.11927   0.82668   1.000
    O10     O    0.47065   0.32664   0.64275   1.000
    N11     N    0.88921   0.65774   0.78763   1.000
    O12     O    0.77700   0.59813   0.67504   1.000
    O13     O    0.99194   0.80868   0.85967   1.000
    N14     N    0.88921   0.15705   0.71236   1.000
    O15     O    0.77700   0.09779   0.82496   1.000
    O16     O    0.99194   0.30834   0.64033   1.000
    N17     N    0.36650   0.68587   0.78050   1.000
    O18     O    0.47066   0.82660   0.85724   1.000
    O19     O    0.26065   0.61923   0.67331   1.000
    N20     N    0.11022   0.34228   0.21235   1.000
    O21     O    0.22271   0.40189   0.32495   1.000
    O22     O    0.00776   0.19134   0.14032   1.000
    N23     N    0.11022   0.84229   0.28762   1.000
    O24     O    0.22271   0.90189   0.17503   1.000
    O25     O    0.00777   0.69134   0.35966   1.000
    N26     N    0.63347   0.81404   0.28049   1.000
    O27     O    0.73932   0.88075   0.17330   1.000
    O28     O    0.52932   0.67338   0.35723   1.000
    N29     N    0.63346   0.31403   0.21947   1.000
    O30     O    0.52931   0.17336   0.14274   1.000
    O31     O    0.73932   0.38073   0.32667   1.000
loop_
    _geom_bond_atom_site_label_1
    _geom_bond_atom_site_label_2
    _geom_bond_distance
    _geom_bond_site_symmetry_2
    _ccdc_geom_bond_type
    N8     O9        3.30829      .   S
    Zr4    O9        4.46357      .   S
    N8     O10       3.27304      .   S
    Zr7    O10       4.43004      .   S
    N11    O12       3.43624      .   S
    Zr7    O12       4.61547      .   S
    N11    O13       3.30277      .   S
    Zr4    O13       4.51794  1_445   S
    N14    O15       3.43495      .   S
    Zr1    O15       4.61368  1_565   S
    N14    O16       3.30659      .   S
    Zr2    O16       4.52170  1_455   S
    N17    O18       3.27382      .   S
    Zr1    O18       4.43083      .   S
    N17    O19       3.30775      .   S
    Zr2    O19       4.46292      .   S
    N20    O21       3.43808      .   S
    Zr3    O21       4.61735      .   S
    N20    O22       3.30117      .   S
    Zr0    O22       4.51641  1_665   S
    N23    O24       3.43785      .   S
    Zr5    O24       4.61702  1_545   S
    N23    O25       3.30140      .   S
    Zr6    O25       4.51680  1_655   S
    N26    O27       3.30804      .   S
    Zr0    O27       4.46332      .   S
    N26    O28       3.27322      .   S
    Zr3    O28       4.43022      .   S
    N29    O30       3.27308      .   S
    Zr5    O30       4.43000      .   S
    N29    O31       3.30833      .   S
    Zr6    O31       4.46358      .   S
