# CIF file generated by openbabel 2.4.90, see http://openbabel.sf.net
data_I
_chemical_name_common ''
_cell_length_a 14.07
_cell_length_b 15.811
_cell_length_c 26.043
_cell_angle_alpha 90.002
_cell_angle_beta 89.998
_cell_angle_gamma 93.291
_space_group_name_H-M_alt 'P 1'
_space_group_name_Hall 'P 1'
loop_
    _symmetry_equiv_pos_as_xyz
    x,y,z
loop_
    _atom_site_label
    _atom_site_type_symbol
    _atom_site_fract_x
    _atom_site_fract_y
    _atom_site_fract_z
    _atom_site_occupancy
    Zr0     Zr   0.87325   0.99553   0.03237   1.000
    Zr1     Zr   0.62083   0.99613   0.97006   1.000
    Zr2     Zr   0.12673   0.50451   0.53238   1.000
    Zr3     Zr   0.37916   0.50391   0.47005   1.000
    Zr4     Zr   0.12672   0.00450   0.96762   1.000
    Zr5     Zr   0.37915   0.00388   0.02993   1.000
    Zr6     Zr   0.87325   0.49550   0.46761   1.000
    Zr7     Zr   0.62082   0.49611   0.52994   1.000
    N8      N    0.36650   0.18598   0.71948   1.000
    O9      O    0.26065   0.11927   0.82668   1.000
    O10     O    0.47065   0.32664   0.64275   1.000
    N11     N    0.88921   0.65774   0.78763   1.000
    O12     O    0.77700   0.59813   0.67504   1.000
    O13     O    0.99194   0.80868   0.85967   1.000
    N14     N    0.88921   0.15705   0.71236   1.000
    O15     O    0.77700   0.09779   0.82496   1.000
    O16     O    0.99194   0.30834   0.64033   1.000
    N17     N    0.36650   0.68587   0.78050   1.000
    O18     O    0.47066   0.82660   0.85724   1.000
    O19     O    0.26065   0.61923   0.67331   1.000
    N20     N    0.11022   0.34228   0.21235   1.000
    O21     O    0.22271   0.40189   0.32495   1.000
    O22     O    0.00776   0.19134   0.14032   1.000
    N23     N    0.11022   0.84229   0.28762   1.000
    O24     O    0.22271   0.90189   0.17503   1.000
    O25     O    0.00777   0.69134   0.35966   1.000
    N26     N    0.63347   0.81404   0.28049   1.000
    O27     O    0.73932   0.88075   0.17330   1.000
    O28     O    0.52932   0.67338   0.35723   1.000
    N29     N    0.63346   0.31403   0.21947   1.000
    O30     O    0.52931   0.17336   0.14274   1.000
    O31     O    0.73932   0.38073   0.32667   1.000
    N32     N    0.71606   0.57970   0.45774   1.000
    O33     O    0.69225   0.55880   0.47579   1.000
    N34     N    0.96560   0.09006   0.96460   1.000
    O35     O    0.94251   0.06643   0.98154   1.000
    N36     N    0.51122   0.88750   0.02628   1.000
    O37     O    0.53862   0.91466   0.01222   1.000
    N38     N    0.71605   0.07969   0.04225   1.000
    O39     O    0.69225   0.05880   0.02420   1.000
    N40     N    0.28392   0.42032   0.54225   1.000
    O41     O    0.30773   0.44121   0.52420   1.000
    N42     N    0.48875   0.11252   0.97370   1.000
    O43     O    0.46135   0.08536   0.98776   1.000
    N44     N    0.76402   0.39383   0.53363   1.000
    O45     O    0.72822   0.41940   0.53271   1.000
    N46     N    0.23596   0.60619   0.46636   1.000
    O47     O    0.27176   0.58062   0.46728   1.000
    N48     N    0.03437   0.40995   0.46459   1.000
    O49     O    0.05746   0.43359   0.48154   1.000
    N50     N    0.51121   0.38749   0.47370   1.000
    O51     O    0.53862   0.41464   0.48776   1.000
    N52     N    0.48877   0.61253   0.52630   1.000
    O53     O    0.46137   0.58537   0.51224   1.000
    N54     N    0.96561   0.59007   0.53540   1.000
    O55     O    0.94252   0.56643   0.51845   1.000
    N56     N    0.28391   0.92032   0.95774   1.000
    O57     O    0.30772   0.94121   0.97579   1.000
    N58     N    0.23595   0.10617   0.03362   1.000
    O59     O    0.27175   0.08060   0.03270   1.000
    N60     N    0.03438   0.90996   0.03539   1.000
    O61     O    0.05746   0.93360   0.01845   1.000
    N62     N    0.76403   0.89385   0.96630   1.000
    O63     O    0.72823   0.91942   0.96724   1.000
loop_
    _geom_bond_atom_site_label_1
    _geom_bond_atom_site_label_2
    _geom_bond_distance
    _geom_bond_site_symmetry_2
    _ccdc_geom_bond_type
    N8     O9        3.30829      .   S
    Zr4    O9        4.46357      .   S
    N8     O10       3.27304      .   S
    Zr7    O10       4.43004      .   S
    N11    O12       3.43624      .   S
    Zr7    O12       4.61547      .   S
    N11    O13       3.30277      .   S
    Zr4    O13       4.51794  1_445   S
    N14    O15       3.43495      .   S
    Zr1    O15       4.61368  1_565   S
    N14    O16       3.30659      .   S
    Zr2    O16       4.52170  1_455   S
    N17    O18       3.27382      .   S
    Zr1    O18       4.43083      .   S
    N17    O19       3.30775      .   S
    Zr2    O19       4.46292      .   S
    N20    O21       3.43808      .   S
    Zr3    O21       4.61735      .   S
    N20    O22       3.30117      .   S
    Zr0    O22       4.51641  1_665   S
    N23    O24       3.43785      .   S
    Zr5    O24       4.61702  1_545   S
    N23    O25       3.30140      .   S
    Zr6    O25       4.51680  1_655   S
    N26    O27       3.30804      .   S
    Zr0    O27       4.46332      .   S
    N26    O28       3.27322      .   S
    Zr3    O28       4.43022      .   S
    N29    O30       3.27308      .   S
    Zr5    O30       4.43000      .   S
    N29    O31       3.30833      .   S
    Zr6    O31       4.46358      .   S
    N32    O33       0.65549      .   S
    Zr7    O33       1.96646      .   S
    N34    O35       0.65261      .   S
    Zr0    O35       1.95784  1_564   S
    N36    O37       0.66934      .   S
    Zr1    O37       2.00803  1_556   S
    N38    O39       0.65536      .   S
    Zr1    O39       1.96607  1_566   S
    N40    O41       0.65549      .   S
    Zr3    O41       1.96647      .   S
    N42    O43       0.66937      .   S
    Zr5    O43       2.00812  1_554   S
    N44    O45       0.66417      .   S
    Zr7    O45       1.99251      .   S
    N46    O47       0.66418      .   S
    Zr3    O47       1.99253      .   S
    N48    O49       0.65278      .   S
    Zr2    O49       1.95835      .   S
    N50    O51       0.66939      .   S
    Zr7    O51       2.00816      .   S
    N52    O53       0.66942      .   S
    Zr3    O53       2.00826      .   S
    N54    O55       0.65279      .   S
    Zr6    O55       1.95836      .   S
    N56    O57       0.65537      .   S
    Zr5    O57       1.96611  1_544   S
    N58    O59       0.66417      .   S
    Zr5    O59       1.99251      .   S
    N60    O61       0.65261      .   S
    Zr4    O61       1.95783  1_546   S
    N62    O63       0.66418      .   S
    Zr1    O63       1.99255      .   S
