# CIF file generated by openbabel 2.4.90, see http://openbabel.sf.net
data_I
_chemical_name_common ''
_cell_length_a 12.599
_cell_length_b 17.292
_cell_length_c 19.294
_cell_angle_alpha 65.181
_cell_angle_beta 84.55
_cell_angle_gamma 83.659
_space_group_name_H-M_alt 'P 1'
_space_group_name_Hall 'P 1'
loop_
    _symmetry_equiv_pos_as_xyz
    x,y,z
loop_
    _atom_site_label
    _atom_site_type_symbol
    _atom_site_fract_x
    _atom_site_fract_y
    _atom_site_fract_z
    _atom_site_occupancy
    C0      C    0.09118   0.29414   0.41330   1.000
    C1      C    0.09118   0.29414   0.91335   1.000
    C2      C    0.09118   0.79414   0.41337   1.000
    C3      C    0.09118   0.79416   0.91330   1.000
    C4      C    0.59118   0.29413   0.41336   1.000
    C5      C    0.59117   0.29414   0.91335   1.000
    C6      C    0.59118   0.79415   0.41336   1.000
    C7      C    0.59117   0.79416   0.91335   1.000
    C8      C    0.16276   0.34186   0.44080   1.000
    C9      C    0.16276   0.34187   0.94070   1.000
    C10     C    0.16276   0.84189   0.44078   1.000
    C11     C    0.16276   0.84187   0.94079   1.000
    C12     C    0.66276   0.34187   0.44079   1.000
    C13     C    0.66276   0.34187   0.94079   1.000
    C14     C    0.66276   0.84188   0.44079   1.000
    C15     C    0.66275   0.84188   0.94079   1.000
    C16     C    0.07065   0.10927   0.34103   1.000
    C17     C    0.07065   0.10927   0.84103   1.000
    C18     C    0.07065   0.60928   0.34103   1.000
    C19     C    0.07064   0.60928   0.84103   1.000
    C20     C    0.57065   0.10927   0.34103   1.000
    C21     C    0.57064   0.10927   0.84103   1.000
    C22     C    0.57064   0.60928   0.34103   1.000
    C23     C    0.57064   0.60928   0.84103   1.000
    C24     C    0.19465   0.10631   0.34236   1.000
    C25     C    0.19464   0.10631   0.84235   1.000
    C26     C    0.19464   0.60632   0.34236   1.000
    C27     C    0.19464   0.60633   0.84235   1.000
    C28     C    0.69464   0.10631   0.34236   1.000
    C29     C    0.69464   0.10631   0.84235   1.000
    C30     C    0.69464   0.60632   0.34236   1.000
    C31     C    0.69464   0.60633   0.84235   1.000
    C32     C    0.40881   0.20588   0.08663   1.000
    C33     C    0.40881   0.20588   0.58660   1.000
    C34     C    0.40881   0.70591   0.08661   1.000
    C35     C    0.40880   0.70590   0.58662   1.000
    C36     C    0.90881   0.20589   0.08662   1.000
    C37     C    0.90880   0.20589   0.58661   1.000
    C38     C    0.90880   0.70590   0.08663   1.000
    C39     C    0.90880   0.70590   0.58660   1.000
    C40     C    0.33723   0.15816   0.05910   1.000
    C41     C    0.33722   0.15817   0.55917   1.000
    C42     C    0.33723   0.65816   0.05900   1.000
    C43     C    0.33722   0.65818   0.55917   1.000
    C44     C    0.83722   0.15816   0.05919   1.000
    C45     C    0.83722   0.15816   0.55918   1.000
    C46     C    0.83722   0.65818   0.05918   1.000
    C47     C    0.83722   0.65819   0.55917   1.000
    C48     C    0.42934   0.39075   0.15895   1.000
    C49     C    0.42934   0.39076   0.65894   1.000
    C50     C    0.42934   0.89077   0.15895   1.000
    C51     C    0.42933   0.89077   0.65894   1.000
    C52     C    0.92934   0.39075   0.15895   1.000
    C53     C    0.92933   0.39076   0.65894   1.000
    C54     C    0.92933   0.89077   0.15895   1.000
    C55     C    0.92933   0.89077   0.65894   1.000
    C56     C    0.30534   0.39371   0.15762   1.000
    C57     C    0.30534   0.39372   0.65760   1.000
    C58     C    0.30534   0.89373   0.15762   1.000
    C59     C    0.30534   0.89373   0.65760   1.000
    C60     C    0.80534   0.39371   0.15762   1.000
    C61     C    0.80534   0.39372   0.65760   1.000
    C62     C    0.80534   0.89373   0.15762   1.000
    C63     C    0.80533   0.89373   0.65760   1.000
    O64     O    0.49373   0.32138   0.40368   1.000
    O65     O    0.49373   0.32139   0.90367   1.000
    O66     O    0.49373   0.82140   0.40368   1.000
    O67     O    0.49373   0.82140   0.90360   1.000
    O68     O    0.98157   0.93007   0.59557   1.000
    O69     O    0.47187   0.34474   0.22111   1.000
    O70     O    0.47187   0.34475   0.72110   1.000
    O71     O    0.47187   0.84475   0.22111   1.000
    O72     O    0.99373   0.32138   0.40367   1.000
    O73     O    0.99372   0.32139   0.90367   1.000
    O74     O    0.99373   0.82140   0.40368   1.000
    O75     O    0.99372   0.82140   0.90360   1.000
    O76     O    0.13482   0.22823   0.40526   1.000
    O77     O    0.13481   0.22823   0.90525   1.000
    O78     O    0.13481   0.72824   0.40526   1.000
    O79     O    0.13481   0.72825   0.90525   1.000
    O80     O    0.63481   0.22822   0.40526   1.000
    O81     O    0.63481   0.22823   0.90525   1.000
    O82     O    0.63481   0.72824   0.40526   1.000
    O83     O    0.63481   0.72825   0.90525   1.000
    O84     O    0.11970   0.37023   0.48870   1.000
    O85     O    0.11969   0.37024   0.98869   1.000
    O86     O    0.11969   0.87025   0.48870   1.000
    O87     O    0.11969   0.87025   0.98870   1.000
    O88     O    0.61969   0.37023   0.48870   1.000
    O89     O    0.61969   0.37024   0.98800   1.000
    O90     O    0.61969   0.87025   0.48870   1.000
    O91     O    0.61969   0.87025   0.98870   1.000
    O92     O    0.25974   0.34690   0.41563   1.000
    O93     O    0.25973   0.34690   0.91560   1.000
    O94     O    0.25974   0.84691   0.41563   1.000
    O95     O    0.25973   0.84691   0.91563   1.000
    O96     O    0.75974   0.34690   0.41563   1.000
    O97     O    0.75973   0.34690   0.91560   1.000
    O98     O    0.75973   0.84691   0.41563   1.000
    O99     O    0.75973   0.84692   0.91563   1.000
    O100    O    0.01841   0.06997   0.40440   1.000
    O101    O    0.01841   0.06997   0.90400   1.000
    O102    O    0.01841   0.56998   0.40440   1.000
    O103    O    0.01840   0.56999   0.90400   1.000
    O104    O    0.51841   0.06997   0.40440   1.000
    O105    O    0.51840   0.06997   0.90400   1.000
    O106    O    0.51841   0.56998   0.40440   1.000
    O107    O    0.51840   0.56999   0.90400   1.000
    O108    O    0.02812   0.15528   0.27887   1.000
    O109    O    0.02811   0.15528   0.77886   1.000
    O110    O    0.02811   0.65529   0.27887   1.000
    O111    O    0.02811   0.65530   0.77886   1.000
    O112    O    0.52811   0.15528   0.27887   1.000
    O113    O    0.52811   0.15528   0.77886   1.000
    O114    O    0.52811   0.65529   0.27887   1.000
    O115    O    0.52811   0.65530   0.77886   1.000
    O116    O    0.23688   0.06438   0.40667   1.000
    O117    O    0.23688   0.06439   0.90666   1.000
    O118    O    0.23688   0.56439   0.40667   1.000
    O119    O    0.23688   0.56440   0.90666   1.000
    O120    O    0.73688   0.06438   0.40667   1.000
    O121    O    0.73687   0.06439   0.90666   1.000
    O122    O    0.73688   0.56439   0.40667   1.000
    O123    O    0.73687   0.56440   0.90666   1.000
    O124    O    0.24472   0.15090   0.28106   1.000
    O125    O    0.24472   0.15091   0.78105   1.000
    O126    O    0.24472   0.65092   0.28106   1.000
    O127    O    0.24471   0.65092   0.78105   1.000
    O128    O    0.74472   0.15090   0.28106   1.000
    O129    O    0.74471   0.15091   0.78105   1.000
    O130    O    0.74471   0.65092   0.28106   1.000
    O131    O    0.74471   0.65092   0.78105   1.000
    O132    O    0.00626   0.17863   0.09631   1.000
    O133    O    0.00626   0.17864   0.59630   1.000
    O134    O    0.00626   0.67865   0.09631   1.000
    O135    O    0.00625   0.67865   0.59630   1.000
    O136    O    0.50626   0.17863   0.09631   1.000
    O137    O    0.50625   0.17864   0.59630   1.000
    O138    O    0.50625   0.67865   0.09630   1.000
    O139    O    0.50625   0.67865   0.59630   1.000
    O140    O    0.36517   0.27179   0.09472   1.000
    O141    O    0.36517   0.27179   0.59470   1.000
    O142    O    0.36517   0.77181   0.09472   1.000
    O143    O    0.36517   0.77181   0.59472   1.000
    O144    O    0.86517   0.27179   0.09472   1.000
    O145    O    0.86517   0.27180   0.59471   1.000
    O146    O    0.86517   0.77181   0.09472   1.000
    O147    O    0.86517   0.77181   0.59472   1.000
    O148    O    0.38029   0.12979   0.01128   1.000
    O149    O    0.38029   0.12979   0.51127   1.000
    O150    O    0.38029   0.62980   0.01128   1.000
    O151    O    0.38029   0.62981   0.51127   1.000
    O152    O    0.88029   0.12979   0.01128   1.000
    O153    O    0.88029   0.12979   0.51127   1.000
    O154    O    0.88029   0.62980   0.01128   1.000
    O155    O    0.88028   0.62981   0.51127   1.000
    O156    O    0.24025   0.15312   0.08435   1.000
    O157    O    0.24025   0.15313   0.58434   1.000
    O158    O    0.24025   0.65313   0.08435   1.000
    O159    O    0.24025   0.65314   0.58434   1.000
    O160    O    0.74025   0.15312   0.08435   1.000
    O161    O    0.74025   0.15313   0.58434   1.000
    O162    O    0.74025   0.65314   0.08435   1.000
    O163    O    0.74025   0.65314   0.58434   1.000
    O164    O    0.48158   0.43005   0.09558   1.000
    O165    O    0.48158   0.43006   0.59557   1.000
    O166    O    0.48158   0.93007   0.09558   1.000
    O167    O    0.48157   0.93007   0.59557   1.000
    O168    O    0.98158   0.43005   0.09558   1.000
    O169    O    0.98157   0.43006   0.59557   1.000
    O170    O    0.98157   0.93007   0.09558   1.000
    O171    O    0.47187   0.84476   0.72110   1.000
    O172    O    0.97187   0.34474   0.22111   1.000
    O173    O    0.97187   0.34475   0.72110   1.000
    O174    O    0.97187   0.84475   0.22111   1.000
    O175    O    0.97187   0.84476   0.72110   1.000
    O176    O    0.26311   0.43564   0.09331   1.000
    O177    O    0.26311   0.43564   0.59330   1.000
    O178    O    0.26311   0.93565   0.09331   1.000
    O179    O    0.26310   0.93566   0.59330   1.000
    O180    O    0.76311   0.43564   0.09331   1.000
    O181    O    0.76310   0.43564   0.59330   1.000
    O182    O    0.76310   0.93565   0.09331   1.000
    O183    O    0.76310   0.93566   0.59330   1.000
    O184    O    0.25527   0.34912   0.21892   1.000
    O185    O    0.25527   0.34912   0.71891   1.000
    O186    O    0.25527   0.84913   0.21892   1.000
    O187    O    0.25526   0.84914   0.71891   1.000
    O188    O    0.75527   0.34912   0.21892   1.000
    O189    O    0.75526   0.34912   0.71891   1.000
    O190    O    0.75526   0.84913   0.21892   1.000
    O191    O    0.75526   0.84914   0.71891   1.000
loop_
    _geom_bond_atom_site_label_1
    _geom_bond_atom_site_label_2
    _geom_bond_distance
    _geom_bond_site_symmetry_2
    _ccdc_geom_bond_type
    O154   C46       1.27118      .   S
    O152   C44       1.27130      .   S
    O150   C42       1.26810      .   S
    O148   C40       1.26986      .   S
    C42    O158      1.27040      .   S
    C42    C34       1.55038      .   S
    C40    O156      1.26985      .   S
    C40    C32       1.54914      .   S
    C46    O162      1.26943      .   S
    C46    C38       1.54817      .   S
    C44    O160      1.26940      .   S
    C44    C36       1.54800      .   S
    C34    O142      1.27292      .   S
    C34    O138      1.26734      .   S
    C36    O144      1.27291      .   S
    C36    O132      1.26743  1_655   S
    C32    O140      1.27285      .   S
    C32    O136      1.26733      .   S
    C38    O146      1.27285      .   S
    C38    O134      1.26741  1_655   S
    O178   C58       1.27802      .   S
    O180   C60       1.27802      .   S
    O182   C62       1.27802      .   S
    O176   C56       1.27802      .   S
    O166   C50       1.27995      .   S
    O168   C52       1.27995      .   S
    O170   C54       1.27995      .   S
    O164   C48       1.27995      .   S
    C56    C48       1.55971      .   S
    C56    O184      1.26157      .   S
    C58    C50       1.55972      .   S
    C58    O186      1.26156      .   S
    C62    C54       1.55971      .   S
    C62    O190      1.26157      .   S
    C60    C52       1.55972      .   S
    C60    O188      1.26156      .   S
    C52    O172      1.25913      .   S
    C48    O69       1.25913      .   S
    C50    O71       1.25913      .   S
    C54    O174      1.25914      .   S
    O114   C22       1.25914      .   S
    O112   C20       1.25914      .   S
    O110   C18       1.25914      .   S
    O108   C16       1.25913      .   S
    O124   C24       1.26157      .   S
    O126   C26       1.26156      .   S
    O130   C30       1.26157      .   S
    O128   C28       1.26156      .   S
    C16    C24       1.55970      .   S
    C16    O100      1.27995      .   S
    C22    C30       1.55971      .   S
    C22    O106      1.27995      .   S
    C20    C28       1.55971      .   S
    C20    O104      1.27995      .   S
    C18    C26       1.55971      .   S
    C18    O102      1.27995      .   S
    C30    O122      1.27803      .   S
    C28    O120      1.27802      .   S
    C26    O118      1.27802      .   S
    C24    O116      1.27802      .   S
    O72    C0        1.26734  1_655   S
    O64    C4        1.26733      .   S
    O66    C6        1.26733      .   S
    O74    C2        1.26741  1_655   S
    O76    C0        1.27242      .   S
    O78    C2        1.27290      .   S
    O80    C4        1.27288      .   S
    O82    C6        1.27289      .   S
    C0     C8        1.54874      .   S
    C6     C14       1.54806      .   S
    C4     C12       1.54811      .   S
    C2     C10       1.54806      .   S
    O96    C12       1.26942      .   S
    O92    C8        1.26944      .   S
    O94    C10       1.26941      .   S
    O98    C14       1.26940      .   S
    C10    O86       1.27133      .   S
    C12    O88       1.27125      .   S
    C14    O90       1.27129      .   S
    C8     O84       1.27119      .   S
    O155   C47       1.27125      .   S
    O151   C43       1.27119      .   S
    O149   C41       1.27125      .   S
    O153   C45       1.27127      .   S
    C47    O163      1.26942      .   S
    C47    C39       1.54776      .   S
    C43    O159      1.26944      .   S
    C43    C35       1.54811      .   S
    C41    O157      1.26941      .   S
    C41    C33       1.54778      .   S
    C45    O161      1.26940      .   S
    C45    C37       1.54806      .   S
    C39    O147      1.27317      .   S
    C39    O135      1.26745  1_655   S
    C33    O141      1.27298      .   S
    C33    O137      1.26737      .   S
    C37    O145      1.27289      .   S
    C37    O133      1.26742  1_655   S
    C35    O143      1.27295      .   S
    C35    O139      1.26733      .   S
    O181   C61       1.27787      .   S
    O177   C57       1.27787      .   S
    O179   C59       1.27787      .   S
    O183   C63       1.27786      .   S
    O167   C51       1.27995      .   S
    O165   C49       1.27995      .   S
    O169   C53       1.27995      .   S
    O68    C55       1.27995      .   S
    C57    C49       1.55972      .   S
    C57    O185      1.26169      .   S
    C59    C51       1.55972      .   S
    C59    O187      1.26169      .   S
    C61    C53       1.55973      .   S
    C61    O189      1.26169      .   S
    C63    C55       1.55974      .   S
    C63    O191      1.26169      .   S
    C53    O173      1.25914      .   S
    C55    O175      1.25914      .   S
    C51    O171      1.25914      .   S
    C49    O70       1.25914      .   S
    O109   C17       1.25928      .   S
    O111   C19       1.25928      .   S
    O113   C21       1.25928      .   S
    O115   C23       1.25927      .   S
    O129   C29       1.26157      .   S
    O131   C31       1.26156      .   S
    O125   C25       1.26157      .   S
    O127   C27       1.26157      .   S
    C17    C25       1.55969      .   S
    C17    O101      1.27469      .   S
    C19    C27       1.55969      .   S
    C19    O103      1.27469      .   S
    C21    C29       1.55969      .   S
    C21    O105      1.27469      .   S
    C23    C31       1.55970      .   S
    C23    O107      1.27468      .   S
    C25    O117      1.27802      .   S
    C27    O119      1.27802      .   S
    C29    O121      1.27802      .   S
    C31    O123      1.27802      .   S
    O75    C3        1.26745  1_655   S
    O67    C7        1.26745      .   S
    O73    C1        1.26740  1_655   S
    O65    C5        1.26733      .   S
    O81    C5        1.27292      .   S
    O83    C7        1.27295      .   S
    O79    C3        1.27252      .   S
    O77    C1        1.27290      .   S
    C3     C11       1.54857      .   S
    C1     C9        1.54711      .   S
    C7     C15       1.54800      .   S
    C5     C13       1.54810      .   S
    O97    C13       1.26955      .   S
    O93    C9        1.26910      .   S
    O99    C15       1.26938      .   S
    O95    C11       1.26937      .   S
    C9     O85       1.27260      .   S
    C11    O87       1.27137      .   S
    C13    O89       1.25987      .   S
    C15    O91       1.27135      .   S
