# CIF file generated by openbabel 2.4.90, see http://openbabel.sf.net
data_I
_chemical_name_common ''
_cell_length_a 12.599
_cell_length_b 17.292
_cell_length_c 19.294
_cell_angle_alpha 65.181
_cell_angle_beta 84.55
_cell_angle_gamma 83.659
_space_group_name_H-M_alt 'P 1'
_space_group_name_Hall 'P 1'
loop_
    _symmetry_equiv_pos_as_xyz
    x,y,z
loop_
    _atom_site_label
    _atom_site_type_symbol
    _atom_site_fract_x
    _atom_site_fract_y
    _atom_site_fract_z
    _atom_site_occupancy
    C0      C    0.09118   0.29414   0.41330   1.000
    C1      C    0.09118   0.29414   0.91335   1.000
    C2      C    0.09118   0.79414   0.41337   1.000
    C3      C    0.09118   0.79416   0.91330   1.000
    C4      C    0.59118   0.29413   0.41336   1.000
    C5      C    0.59117   0.29414   0.91335   1.000
    C6      C    0.59118   0.79415   0.41336   1.000
    C7      C    0.59117   0.79416   0.91335   1.000
    C8      C    0.16276   0.34186   0.44080   1.000
    C9      C    0.16276   0.34187   0.94070   1.000
    C10     C    0.16276   0.84189   0.44078   1.000
    C11     C    0.16276   0.84187   0.94079   1.000
    C12     C    0.66276   0.34187   0.44079   1.000
    C13     C    0.66276   0.34187   0.94079   1.000
    C14     C    0.66276   0.84188   0.44079   1.000
    C15     C    0.66275   0.84188   0.94079   1.000
    C16     C    0.07065   0.10927   0.34103   1.000
    C17     C    0.07065   0.10927   0.84103   1.000
    C18     C    0.07065   0.60928   0.34103   1.000
    C19     C    0.07064   0.60928   0.84103   1.000
    C20     C    0.57065   0.10927   0.34103   1.000
    C21     C    0.57064   0.10927   0.84103   1.000
    C22     C    0.57064   0.60928   0.34103   1.000
    C23     C    0.57064   0.60928   0.84103   1.000
    C24     C    0.19465   0.10631   0.34236   1.000
    C25     C    0.19464   0.10631   0.84235   1.000
    C26     C    0.19464   0.60632   0.34236   1.000
    C27     C    0.19464   0.60633   0.84235   1.000
    C28     C    0.69464   0.10631   0.34236   1.000
    C29     C    0.69464   0.10631   0.84235   1.000
    C30     C    0.69464   0.60632   0.34236   1.000
    C31     C    0.69464   0.60633   0.84235   1.000
    C32     C    0.40881   0.20588   0.08663   1.000
    C33     C    0.40881   0.20588   0.58660   1.000
    C34     C    0.40881   0.70591   0.08661   1.000
    C35     C    0.40880   0.70590   0.58662   1.000
    C36     C    0.90881   0.20589   0.08662   1.000
    C37     C    0.90880   0.20589   0.58661   1.000
    C38     C    0.90880   0.70590   0.08663   1.000
    C39     C    0.90880   0.70590   0.58660   1.000
    C40     C    0.33723   0.15816   0.05910   1.000
    C41     C    0.33722   0.15817   0.55917   1.000
    C42     C    0.33723   0.65816   0.05900   1.000
    C43     C    0.33722   0.65818   0.55917   1.000
    C44     C    0.83722   0.15816   0.05919   1.000
    C45     C    0.83722   0.15816   0.55918   1.000
    C46     C    0.83722   0.65818   0.05918   1.000
    C47     C    0.83722   0.65819   0.55917   1.000
    C48     C    0.42934   0.39075   0.15895   1.000
    C49     C    0.42934   0.39076   0.65894   1.000
    C50     C    0.42934   0.89077   0.15895   1.000
    C51     C    0.42933   0.89077   0.65894   1.000
    C52     C    0.92934   0.39075   0.15895   1.000
    C53     C    0.92933   0.39076   0.65894   1.000
    C54     C    0.92933   0.89077   0.15895   1.000
    C55     C    0.92933   0.89077   0.65894   1.000
    C56     C    0.30534   0.39371   0.15762   1.000
    C57     C    0.30534   0.39372   0.65760   1.000
    C58     C    0.30534   0.89373   0.15762   1.000
    C59     C    0.30534   0.89373   0.65760   1.000
    C60     C    0.80534   0.39371   0.15762   1.000
    C61     C    0.80534   0.39372   0.65760   1.000
    C62     C    0.80534   0.89373   0.15762   1.000
    C63     C    0.80533   0.89373   0.65760   1.000
loop_
    _geom_bond_atom_site_label_1
    _geom_bond_atom_site_label_2
    _geom_bond_distance
    _geom_bond_site_symmetry_2
    _ccdc_geom_bond_type
    C42    C34       1.55038      .   S
    C40    C32       1.54914      .   S
    C46    C38       1.54817      .   S
    C44    C36       1.54800      .   S
    C56    C48       1.55971      .   S
    C58    C50       1.55972      .   S
    C62    C54       1.55971      .   S
    C60    C52       1.55972      .   S
    C16    C24       1.55970      .   S
    C22    C30       1.55971      .   S
    C20    C28       1.55971      .   S
    C18    C26       1.55971      .   S
    C0     C8        1.54874      .   S
    C6     C14       1.54806      .   S
    C4     C12       1.54811      .   S
    C2     C10       1.54806      .   S
    C47    C39       1.54776      .   S
    C43    C35       1.54811      .   S
    C41    C33       1.54778      .   S
    C45    C37       1.54806      .   S
    C57    C49       1.55972      .   S
    C59    C51       1.55972      .   S
    C61    C53       1.55973      .   S
    C63    C55       1.55974      .   S
    C17    C25       1.55969      .   S
    C19    C27       1.55969      .   S
    C21    C29       1.55969      .   S
    C23    C31       1.55970      .   S
    C3     C11       1.54857      .   S
    C1     C9        1.54711      .   S
    C7     C15       1.54800      .   S
    C5     C13       1.54810      .   S
