# CIF file generated by openbabel 2.4.90, see http://openbabel.sf.net
data_I
_chemical_name_common ''
_cell_length_a 12.599
_cell_length_b 17.292
_cell_length_c 19.294
_cell_angle_alpha 65.181
_cell_angle_beta 84.55
_cell_angle_gamma 83.659
_space_group_name_H-M_alt 'P 1'
_space_group_name_Hall 'P 1'
loop_
    _symmetry_equiv_pos_as_xyz
    x,y,z
loop_
    _atom_site_label
    _atom_site_type_symbol
    _atom_site_fract_x
    _atom_site_fract_y
    _atom_site_fract_z
    _atom_site_occupancy
    Zr0     Zr   0.35994   0.23529   0.35010   1.000
    Zr1     Zr   0.35994   0.23530   0.85014   1.000
    Zr2     Zr   0.35994   0.73531   0.35010   1.000
    Zr3     Zr   0.35994   0.73531   0.85014   1.000
    Zr4     Zr   0.85994   0.23529   0.35010   1.000
    Zr5     Zr   0.85993   0.23530   0.85014   1.000
    Zr6     Zr   0.85993   0.73531   0.35015   1.000
    Zr7     Zr   0.85993   0.73531   0.85014   1.000
    Zr8     Zr   0.39296   0.43134   0.46672   1.000
    Zr9     Zr   0.39296   0.43134   0.96671   1.000
    Zr10    Zr   0.39296   0.93135   0.46672   1.000
    Zr11    Zr   0.39296   0.93136   0.96671   1.000
    Zr12    Zr   0.89296   0.43134   0.46672   1.000
    Zr13    Zr   0.89296   0.43134   0.96671   1.000
    Zr14    Zr   0.89296   0.93135   0.46672   1.000
    Zr15    Zr   0.89295   0.93136   0.96671   1.000
    Zr16    Zr   0.14005   0.26473   0.14984   1.000
    Zr17    Zr   0.14005   0.26473   0.64983   1.000
    Zr18    Zr   0.14005   0.76474   0.14984   1.000
    Zr19    Zr   0.14004   0.76475   0.64983   1.000
    Zr20    Zr   0.64005   0.26473   0.14984   1.000
    Zr21    Zr   0.64004   0.26473   0.64983   1.000
    Zr22    Zr   0.64004   0.76474   0.14984   1.000
    Zr23    Zr   0.64004   0.76475   0.64983   1.000
    Zr24    Zr   0.10703   0.06868   0.03327   1.000
    Zr25    Zr   0.10703   0.06869   0.53326   1.000
    Zr26    Zr   0.10703   0.56869   0.03327   1.000
    Zr27    Zr   0.10702   0.56870   0.53326   1.000
    Zr28    Zr   0.60703   0.06868   0.03327   1.000
    Zr29    Zr   0.60702   0.06869   0.53326   1.000
    Zr30    Zr   0.60702   0.56869   0.03327   1.000
    Zr31    Zr   0.60702   0.56870   0.53326   1.000
    C32     C    0.13265   0.10779   0.84169   1.000
    C33     C    0.36734   0.39224   0.65827   1.000
    C34     C    0.87302   0.18202   0.07290   1.000
    C35     C    0.63264   0.60780   0.34169   1.000
    C36     C    0.87301   0.68204   0.07290   1.000
    C37     C    0.62697   0.31800   0.42707   1.000
    C38     C    0.12697   0.81801   0.42707   1.000
    C39     C    0.86734   0.89225   0.15829   1.000
    C40     C    0.37301   0.18203   0.57288   1.000
    C41     C    0.87301   0.18203   0.57289   1.000
    C42     C    0.63265   0.10779   0.34169   1.000
    C43     C    0.13265   0.60780   0.34169   1.000
    C44     C    0.87301   0.68204   0.57288   1.000
    C45     C    0.36734   0.39223   0.15829   1.000
    C46     C    0.12697   0.81802   0.92704   1.000
    C47     C    0.12697   0.31800   0.92702   1.000
    C48     C    0.37301   0.68204   0.57289   1.000
    C49     C    0.36734   0.89225   0.15829   1.000
    C50     C    0.36734   0.89225   0.65827   1.000
    C51     C    0.86733   0.39224   0.65827   1.000
    C52     C    0.86733   0.89225   0.65827   1.000
    C53     C    0.13264   0.60781   0.84169   1.000
    C54     C    0.63264   0.10779   0.84169   1.000
    C55     C    0.63264   0.60781   0.84169   1.000
    C56     C    0.12697   0.31800   0.42705   1.000
    C57     C    0.62697   0.81801   0.42707   1.000
    C58     C    0.62696   0.81802   0.92707   1.000
    C59     C    0.62696   0.31800   0.92707   1.000
    C60     C    0.86734   0.39223   0.15829   1.000
    C61     C    0.37302   0.68204   0.07280   1.000
    C62     C    0.13265   0.10779   0.34169   1.000
    C63     C    0.37302   0.18202   0.07286   1.000
    C64     C    0.07324   0.78127   0.90738   1.000
    O65     O    0.09115   0.79368   0.91378   1.000
    O66     O    0.00003   0.77981   0.89213   1.000
    O67     O    0.00829   0.82883   0.92127   1.000
    O68     O    0.16030   0.75652   0.89254   1.000
    O69     O    0.09708   0.71487   0.93832   1.000
    C70     C    0.22541   0.60721   0.34336   1.000
    O71     O    0.19453   0.60714   0.34270   1.000
    O72     O    0.27017   0.55254   0.39003   1.000
    O73     O    0.19868   0.58688   0.40666   1.000
    O74     O    0.20890   0.65752   0.27941   1.000
    C75     C    0.07324   0.28125   0.40741   1.000
    O76     O    0.09116   0.29366   0.41379   1.000
    O77     O    0.16031   0.25650   0.39254   1.000
    O78     O    0.09708   0.21485   0.43833   1.000
    O79     O    0.00004   0.27979   0.39215   1.000
    O80     O    0.00829   0.32881   0.42130   1.000
    C81     C    0.31926   0.14702   0.05158   1.000
    O82     O    0.40646   0.12313   0.03693   1.000
    O83     O    0.34469   0.16478   0.99114   1.000
    O84     O    0.33719   0.15856   0.05878   1.000
    O85     O    0.25471   0.17797   0.08434   1.000
    O86     O    0.24645   0.12896   0.05519   1.000
    C87     C    0.31926   0.14703   0.55159   1.000
    O88     O    0.34469   0.16479   0.49114   1.000
    O89     O    0.40646   0.12314   0.53693   1.000
    O90     O    0.33719   0.15857   0.55881   1.000
    O91     O    0.25470   0.17798   0.58434   1.000
    O92     O    0.24645   0.12897   0.55520   1.000
    C93     C    0.57324   0.28125   0.40743   1.000
    O94     O    0.66031   0.25650   0.39256   1.000
    O95     O    0.59708   0.21485   0.43835   1.000
    O96     O    0.59116   0.29365   0.41383   1.000
    O97     O    0.50004   0.27979   0.39216   1.000
    O98     O    0.50829   0.32880   0.42132   1.000
    C99     C    0.42674   0.71879   0.59255   1.000
    O100    O    0.40882   0.70638   0.58615   1.000
    O101    O    0.49994   0.72024   0.60781   1.000
    O102    O    0.49169   0.67123   0.57866   1.000
    O103    O    0.40290   0.78519   0.56163   1.000
    O104    O    0.33967   0.74353   0.60741   1.000
    C105    C    0.92674   0.71879   0.59254   1.000
    O106    O    0.90882   0.70638   0.58614   1.000
    O107    O    0.99994   0.72024   0.60780   1.000
    O108    O    0.99169   0.67123   0.57866   1.000
    O109    O    0.90290   0.78518   0.56163   1.000
    O110    O    0.83967   0.74353   0.60741   1.000
    C111    C    0.46093   0.38852   0.65854   1.000
    O112    O    0.42963   0.39001   0.65857   1.000
    O113    O    0.50261   0.44395   0.61148   1.000
    O114    O    0.44910   0.40961   0.59484   1.000
    O115    O    0.43842   0.33927   0.72208   1.000
    C116    C    0.72541   0.60722   0.84335   1.000
    O117    O    0.69452   0.60714   0.84269   1.000
    O118    O    0.69868   0.58688   0.90666   1.000
    O119    O    0.77016   0.55254   0.89002   1.000
    O120    O    0.70889   0.65752   0.77940   1.000
    C121    C    0.03906   0.61152   0.34143   1.000
    O122    O    0.07035   0.61003   0.34140   1.000
    O123    O    0.05089   0.59043   0.40513   1.000
    O124    O    0.99737   0.55609   0.38850   1.000
    O125    O    0.06157   0.66077   0.27789   1.000
    C126    C    0.42675   0.21877   0.09255   1.000
    O127    O    0.40883   0.20636   0.08615   1.000
    O128    O    0.40291   0.28517   0.06163   1.000
    O129    O    0.33968   0.24352   0.10742   1.000
    O130    O    0.49995   0.22023   0.10781   1.000
    O131    O    0.49169   0.17121   0.07867   1.000
    C132    C    0.57324   0.78126   0.40743   1.000
    O133    O    0.50004   0.77981   0.39216   1.000
    O134    O    0.50829   0.82882   0.42132   1.000
    O135    O    0.66031   0.75652   0.39257   1.000
    O136    O    0.59708   0.71487   0.43835   1.000
    O137    O    0.59116   0.79367   0.41383   1.000
    C138    C    0.42674   0.21877   0.59253   1.000
    O139    O    0.40883   0.20636   0.58614   1.000
    O140    O    0.49995   0.22023   0.60780   1.000
    O141    O    0.49169   0.17122   0.57866   1.000
    O142    O    0.40290   0.28517   0.56162   1.000
    O143    O    0.33968   0.24352   0.60740   1.000
    C144    C    0.68073   0.35300   0.44837   1.000
    O145    O    0.59353   0.37689   0.46304   1.000
    O146    O    0.65530   0.33524   0.50882   1.000
    O147    O    0.74528   0.32205   0.41562   1.000
    O148    O    0.75354   0.37106   0.44477   1.000
    O149    O    0.66280   0.34147   0.44115   1.000
    C150    C    0.46093   0.88853   0.15855   1.000
    O151    O    0.50262   0.94395   0.11149   1.000
    O152    O    0.44910   0.90962   0.09485   1.000
    O153    O    0.42963   0.89002   0.15858   1.000
    O154    O    0.43842   0.83928   0.22208   1.000
    C155    C    0.46093   0.88853   0.65854   1.000
    O156    O    0.50261   0.94396   0.61148   1.000
    O157    O    0.44910   0.90962   0.59484   1.000
    O158    O    0.42963   0.89002   0.65857   1.000
    O159    O    0.43841   0.83929   0.72208   1.000
    C160    C    0.03906   0.11151   0.34143   1.000
    O161    O    0.06157   0.16075   0.27789   1.000
    O162    O    0.07035   0.11002   0.34140   1.000
    O163    O    0.05089   0.09042   0.40513   1.000
    O164    O    0.99737   0.05608   0.38850   1.000
    C165    C    0.18073   0.35300   0.94833   1.000
    O166    O    0.09353   0.37690   0.96301   1.000
    O167    O    0.15530   0.33524   0.00880   1.000
    O168    O    0.16280   0.34147   0.94110   1.000
    O169    O    0.24528   0.32205   0.91560   1.000
    O170    O    0.25354   0.37106   0.94474   1.000
    C171    C    0.77457   0.39283   0.65660   1.000
    O172    O    0.72981   0.44750   0.60994   1.000
    O173    O    0.80130   0.41316   0.59331   1.000
    O174    O    0.80545   0.39290   0.65727   1.000
    O175    O    0.79108   0.34252   0.72056   1.000
    C176    C    0.77457   0.89284   0.15662   1.000
    O177    O    0.80130   0.91317   0.09331   1.000
    O178    O    0.72982   0.94750   0.10995   1.000
    O179    O    0.80545   0.89291   0.15728   1.000
    O180    O    0.79108   0.84253   0.22058   1.000
    C181    C    0.53905   0.61152   0.34143   1.000
    O182    O    0.55088   0.59043   0.40513   1.000
    O183    O    0.49737   0.55609   0.38850   1.000
    O184    O    0.57035   0.61003   0.34140   1.000
    O185    O    0.56157   0.66077   0.27789   1.000
    C186    C    0.72541   0.10720   0.84335   1.000
    O187    O    0.70889   0.15751   0.77940   1.000
    O188    O    0.69868   0.08687   0.90666   1.000
    O189    O    0.77016   0.05254   0.89002   1.000
    O190    O    0.69453   0.10713   0.84269   1.000
    C191    C    0.72541   0.10720   0.34336   1.000
    O192    O    0.69453   0.10712   0.34270   1.000
    O193    O    0.77017   0.05253   0.39003   1.000
    O194    O    0.69868   0.08686   0.40666   1.000
    O195    O    0.70890   0.15751   0.27941   1.000
    C196    C    0.53905   0.61152   0.84130   1.000
    O197    O    0.56156   0.66077   0.77782   1.000
    O198    O    0.55088   0.59043   0.90497   1.000
    O199    O    0.49736   0.55610   0.88833   1.000
    O200    O    0.57035   0.61003   0.84133   1.000
    C201    C    0.22541   0.10720   0.84335   1.000
    O202    O    0.20890   0.15751   0.77940   1.000
    O203    O    0.19453   0.10713   0.84269   1.000
    O204    O    0.27016   0.05254   0.89002   1.000
    O205    O    0.19868   0.08687   0.90666   1.000
    C206    C    0.22541   0.60722   0.84335   1.000
    O207    O    0.20889   0.65752   0.77940   1.000
    O208    O    0.27016   0.55254   0.89002   1.000
    O209    O    0.19868   0.58688   0.90666   1.000
    O210    O    0.19453   0.60714   0.84269   1.000
    C211    C    0.18073   0.85302   0.44837   1.000
    O212    O    0.24528   0.82206   0.41562   1.000
    O213    O    0.25354   0.87108   0.44477   1.000
    O214    O    0.09353   0.87691   0.46304   1.000
    O215    O    0.15530   0.83526   0.50882   1.000
    O216    O    0.16280   0.84148   0.44115   1.000
    C217    C    0.81925   0.64704   0.05160   1.000
    O218    O    0.83719   0.65857   0.05882   1.000
    O219    O    0.84468   0.66480   0.99116   1.000
    O220    O    0.90646   0.62314   0.03694   1.000
    O221    O    0.75470   0.67799   0.08435   1.000
    O222    O    0.74644   0.62898   0.05521   1.000
    C223    C    0.57323   0.78127   0.90740   1.000
    O224    O    0.66030   0.75652   0.89255   1.000
    O225    O    0.59707   0.71487   0.93833   1.000
    O226    O    0.59115   0.79368   0.91380   1.000
    O227    O    0.50003   0.77981   0.89213   1.000
    O228    O    0.50829   0.82883   0.92128   1.000
    C229    C    0.46093   0.38851   0.15855   1.000
    O230    O    0.42964   0.39000   0.15858   1.000
    O231    O    0.50262   0.44394   0.11149   1.000
    O232    O    0.44910   0.40961   0.09485   1.000
    O233    O    0.43842   0.33927   0.22208   1.000
    C234    C    0.68072   0.35300   0.94813   1.000
    O235    O    0.66279   0.34147   0.94103   1.000
    O236    O    0.59352   0.37690   0.96274   1.000
    O237    O    0.65530   0.33524   0.00852   1.000
    O238    O    0.74528   0.32205   0.91550   1.000
    O239    O    0.75353   0.37106   0.94464   1.000
    C240    C    0.53905   0.11151   0.84130   1.000
    O241    O    0.55088   0.09042   0.90497   1.000
    O242    O    0.49737   0.05609   0.88833   1.000
    O243    O    0.57035   0.11002   0.84133   1.000
    O244    O    0.56156   0.16076   0.77782   1.000
    C245    C    0.31925   0.64704   0.55159   1.000
    O246    O    0.33719   0.65858   0.55881   1.000
    O247    O    0.34468   0.66480   0.49114   1.000
    O248    O    0.40645   0.62315   0.53693   1.000
    O249    O    0.25470   0.67800   0.58434   1.000
    O250    O    0.24644   0.62898   0.55520   1.000
    C251    C    0.22542   0.10720   0.34336   1.000
    O252    O    0.19453   0.10712   0.34270   1.000
    O253    O    0.27017   0.05253   0.39003   1.000
    O254    O    0.19868   0.08686   0.40666   1.000
    O255    O    0.20890   0.15751   0.27941   1.000
    C256    C    0.07324   0.28125   0.90742   1.000
    O257    O    0.09116   0.29366   0.91381   1.000
    O258    O    0.16031   0.25651   0.89256   1.000
    O259    O    0.09708   0.21485   0.93834   1.000
    O260    O    0.00003   0.27980   0.89216   1.000
    O261    O    0.00829   0.32881   0.92131   1.000
    C262    C    0.03905   0.61152   0.84130   1.000
    O263    O    0.99737   0.55610   0.88833   1.000
    O264    O    0.05088   0.59043   0.90497   1.000
    O265    O    0.06156   0.66077   0.77782   1.000
    O266    O    0.07035   0.61003   0.84133   1.000
    C267    C    0.53906   0.11150   0.34143   1.000
    O268    O    0.55089   0.09042   0.40513   1.000
    O269    O    0.49737   0.05608   0.38850   1.000
    O270    O    0.57035   0.11001   0.34140   1.000
    O271    O    0.56157   0.16075   0.27789   1.000
    C272    C    0.18073   0.35300   0.44838   1.000
    O273    O    0.09353   0.37689   0.46304   1.000
    O274    O    0.15530   0.33524   0.50882   1.000
    O275    O    0.24529   0.32204   0.41562   1.000
    O276    O    0.25354   0.37106   0.44478   1.000
    O277    O    0.16280   0.34146   0.44115   1.000
    C278    C    0.81925   0.64705   0.55159   1.000
    O279    O    0.83718   0.65858   0.55881   1.000
    O280    O    0.84468   0.66480   0.49115   1.000
    O281    O    0.90645   0.62315   0.53693   1.000
    O282    O    0.75470   0.67800   0.58434   1.000
    O283    O    0.74644   0.62898   0.55520   1.000
    C284    C    0.07324   0.78126   0.40744   1.000
    O285    O    0.09116   0.79367   0.41383   1.000
    O286    O    0.16031   0.75651   0.39256   1.000
    O287    O    0.09708   0.71486   0.43835   1.000
    O288    O    0.00004   0.77980   0.39218   1.000
    O289    O    0.00829   0.82882   0.42132   1.000
    C290    C    0.68073   0.85301   0.44837   1.000
    O291    O    0.66279   0.84148   0.44115   1.000
    O292    O    0.59353   0.87691   0.46304   1.000
    O293    O    0.65530   0.83526   0.50882   1.000
    O294    O    0.74528   0.82206   0.41563   1.000
    O295    O    0.75354   0.87107   0.44477   1.000
    C296    C    0.81926   0.14702   0.05161   1.000
    O297    O    0.75470   0.17797   0.08435   1.000
    O298    O    0.74645   0.12896   0.05521   1.000
    O299    O    0.84468   0.16478   0.99116   1.000
    O300    O    0.90646   0.12313   0.03694   1.000
    O301    O    0.83719   0.15856   0.05883   1.000
    C302    C    0.81925   0.14703   0.55160   1.000
    O303    O    0.75470   0.17798   0.58434   1.000
    O304    O    0.74644   0.12897   0.55520   1.000
    O305    O    0.84468   0.16478   0.49114   1.000
    O306    O    0.90645   0.12313   0.53693   1.000
    O307    O    0.83718   0.15856   0.55882   1.000
    C308    C    0.96092   0.88853   0.65854   1.000
    O309    O    0.92963   0.89002   0.65857   1.000
    O310    O    0.93841   0.83929   0.72208   1.000
    O311    O    0.00261   0.94396   0.61148   1.000
    O312    O    0.94909   0.90962   0.59484   1.000
    C313    C    0.72541   0.60721   0.34336   1.000
    O314    O    0.77016   0.55254   0.39003   1.000
    O315    O    0.69868   0.58688   0.40666   1.000
    O316    O    0.69453   0.60714   0.34270   1.000
    O317    O    0.70890   0.65752   0.27941   1.000
    C318    C    0.92674   0.71878   0.09255   1.000
    O319    O    0.90883   0.70638   0.08616   1.000
    O320    O    0.99995   0.72024   0.10781   1.000
    O321    O    0.99169   0.67123   0.07867   1.000
    O322    O    0.90290   0.78518   0.06163   1.000
    O323    O    0.83967   0.74353   0.10742   1.000
    C324    C    0.27457   0.89284   0.15662   1.000
    O325    O    0.30546   0.89291   0.15728   1.000
    O326    O    0.30130   0.91317   0.09331   1.000
    O327    O    0.22982   0.94750   0.10995   1.000
    O328    O    0.29109   0.84253   0.22056   1.000
    C329    C    0.77457   0.39282   0.15662   1.000
    O330    O    0.80546   0.39290   0.15728   1.000
    O331    O    0.79109   0.34251   0.22056   1.000
    O332    O    0.72982   0.44750   0.10995   1.000
    O333    O    0.80130   0.41316   0.09331   1.000
    C334    C    0.57324   0.28125   0.90742   1.000
    O335    O    0.50829   0.32881   0.92131   1.000
    O336    O    0.50004   0.27980   0.89216   1.000
    O337    O    0.59115   0.29366   0.91382   1.000
    O338    O    0.66030   0.25651   0.89256   1.000
    O339    O    0.59708   0.21485   0.93834   1.000
    C340    C    0.92674   0.21878   0.59254   1.000
    O341    O    0.90882   0.20637   0.58615   1.000
    O342    O    0.99995   0.22023   0.60780   1.000
    O343    O    0.99169   0.17122   0.57866   1.000
    O344    O    0.90290   0.28517   0.56163   1.000
    O345    O    0.83967   0.24352   0.60740   1.000
    C346    C    0.68072   0.85301   0.94837   1.000
    O347    O    0.59352   0.87691   0.96304   1.000
    O348    O    0.65529   0.83526   0.00882   1.000
    O349    O    0.66279   0.84148   0.94115   1.000
    O350    O    0.74528   0.82206   0.91563   1.000
    O351    O    0.75353   0.87108   0.94477   1.000
    C352    C    0.27457   0.39283   0.65660   1.000
    O353    O    0.30545   0.39290   0.65727   1.000
    O354    O    0.30130   0.41316   0.59331   1.000
    O355    O    0.22982   0.44750   0.60994   1.000
    O356    O    0.29109   0.34252   0.72056   1.000
    C357    C    0.92675   0.21877   0.09255   1.000
    O358    O    0.90883   0.20636   0.08616   1.000
    O359    O    0.99995   0.22023   0.10781   1.000
    O360    O    0.99169   0.17121   0.07867   1.000
    O361    O    0.90290   0.28517   0.06163   1.000
    O362    O    0.83968   0.24352   0.10741   1.000
    C363    C    0.42674   0.71879   0.09254   1.000
    O364    O    0.40883   0.70638   0.08613   1.000
    O365    O    0.49995   0.72024   0.10781   1.000
    O366    O    0.49169   0.67123   0.07866   1.000
    O367    O    0.33968   0.74353   0.10741   1.000
    O368    O    0.40290   0.78519   0.06163   1.000
    C369    C    0.03906   0.11151   0.84130   1.000
    O370    O    0.06157   0.16076   0.77782   1.000
    O371    O    0.07035   0.11002   0.84133   1.000
    O372    O    0.05089   0.09042   0.90497   1.000
    O373    O    0.99737   0.05609   0.88833   1.000
    C374    C    0.77457   0.89284   0.65660   1.000
    O375    O    0.80545   0.89292   0.65727   1.000
    O376    O    0.72981   0.94751   0.60994   1.000
    O377    O    0.80130   0.91317   0.59331   1.000
    O378    O    0.79108   0.84253   0.72056   1.000
    C379    C    0.27457   0.89284   0.65660   1.000
    O380    O    0.30545   0.89292   0.65727   1.000
    O381    O    0.29108   0.84253   0.72056   1.000
    O382    O    0.30130   0.91317   0.59331   1.000
    O383    O    0.22982   0.94751   0.60994   1.000
    C384    C    0.31926   0.64703   0.05154   1.000
    O385    O    0.34468   0.66479   0.99113   1.000
    O386    O    0.40646   0.62314   0.03691   1.000
    O387    O    0.25470   0.67799   0.08432   1.000
    O388    O    0.24645   0.62897   0.05518   1.000
    O389    O    0.33719   0.65857   0.05872   1.000
    C390    C    0.96093   0.88853   0.15855   1.000
    O391    O    0.92963   0.89002   0.15858   1.000
    O392    O    0.93841   0.83928   0.22209   1.000
    O393    O    0.94909   0.90962   0.09485   1.000
    O394    O    0.00261   0.94395   0.11149   1.000
    C395    C    0.96092   0.38852   0.65854   1.000
    O396    O    0.93841   0.33927   0.72208   1.000
    O397    O    0.92963   0.39001   0.65857   1.000
    O398    O    0.94910   0.40961   0.59484   1.000
    O399    O    0.00261   0.44395   0.61148   1.000
    C400    C    0.27457   0.39282   0.15662   1.000
    O401    O    0.30546   0.39290   0.15728   1.000
    O402    O    0.29109   0.34251   0.22056   1.000
    O403    O    0.22982   0.44749   0.10995   1.000
    O404    O    0.30130   0.41316   0.09331   1.000
    C405    C    0.96093   0.38851   0.15855   1.000
    O406    O    0.93842   0.33927   0.22208   1.000
    O407    O    0.92963   0.39000   0.15858   1.000
    O408    O    0.00262   0.44394   0.11149   1.000
    O409    O    0.94910   0.40961   0.09485   1.000
    C410    C    0.18073   0.85301   0.94837   1.000
    O411    O    0.16279   0.84148   0.94115   1.000
    O412    O    0.24528   0.82206   0.91563   1.000
    O413    O    0.25353   0.87107   0.94477   1.000
    O414    O    0.09352   0.87691   0.96304   1.000
    O415    O    0.15530   0.83526   0.00882   1.000
    O416    O    0.49032   0.14274   0.84354   1.000
    O417    O    0.26289   0.13934   0.84518   1.000
    O418    O    0.23709   0.86070   0.15480   1.000
    O419    O    0.00965   0.85730   0.15632   1.000
    O420    O    0.73709   0.36069   0.65479   1.000
    O421    O    0.50966   0.35729   0.65631   1.000
    O422    O    0.50966   0.35729   0.15632   1.000
    O423    O    0.49032   0.64275   0.84354   1.000
    O424    O    0.26289   0.63935   0.84518   1.000
    O425    O    0.49033   0.14273   0.34365   1.000
    O426    O    0.26289   0.13933   0.34517   1.000
    O427    O    0.76288   0.63935   0.84518   1.000
    O428    O    0.99032   0.64275   0.84354   1.000
    O429    O    0.00965   0.85731   0.65631   1.000
    O430    O    0.23709   0.86071   0.65479   1.000
    O431    O    0.76289   0.13933   0.34517   1.000
    O432    O    0.99033   0.14273   0.34365   1.000
    O433    O    0.00966   0.35729   0.15632   1.000
    O434    O    0.23710   0.36069   0.15480   1.000
    O435    O    0.76289   0.63935   0.34519   1.000
    O436    O    0.99033   0.64275   0.34366   1.000
    O437    O    0.73709   0.86071   0.65479   1.000
    O438    O    0.50965   0.85731   0.65631   1.000
    O439    O    0.73709   0.36069   0.15480   1.000
    O440    O    0.73709   0.86070   0.15480   1.000
    O441    O    0.50966   0.85730   0.15632   1.000
    O442    O    0.76289   0.13934   0.84518   1.000
    O443    O    0.99033   0.14274   0.84354   1.000
    O444    O    0.23709   0.36069   0.65479   1.000
    O445    O    0.49033   0.64275   0.34365   1.000
    O446    O    0.26289   0.63935   0.34517   1.000
    O447    O    0.00965   0.35729   0.65631   1.000
loop_
    _geom_bond_atom_site_label_1
    _geom_bond_atom_site_label_2
    _geom_bond_distance
    _geom_bond_site_symmetry_2
    _ccdc_geom_bond_type
    C64    O65       0.38786      .   S
    C46    O65       0.77495      .   S
    C64    O66       1.00043      .   S
    Zr7    O66       2.33647  1_655   S
    C64    O67       1.18840      .   S
    Zr15   O67       2.55294  1_655   S
    C64    O68       1.18659      .   S
    Zr3    O68       2.60519      .   S
    C64    O69       1.07115      .   S
    Zr26   O69       2.41807  1_554   S
    C70    O71       0.39070      .   S
    C43    O71       0.78043      .   S
    C70    O72       1.13422      .   S
    Zr8    O72       2.46790      .   S
    C70    O73       1.14727      .   S
    Zr27   O73       2.50963      .   S
    C70    O74       1.19599      .   S
    Zr18   O74       2.57002      .   S
    C75    O76       0.38772      .   S
    C56    O76       0.77485      .   S
    C75    O77       1.18671      .   S
    Zr0    O77       2.60543      .   S
    C75    O78       1.07107      .   S
    Zr25   O78       2.41782      .   S
    C75    O79       1.00047      .   S
    Zr4    O79       2.33711  1_655   S
    C75    O80       1.18846      .   S
    Zr12   O80       2.55269  1_655   S
    C81    O82       1.18171      .   S
    Zr28   O82       2.60253      .   S
    C81    O83       1.09849  1_554   S
    Zr1    O83       2.46831      .   S
    C81    O84       0.38642      .   S
    C63    O84       0.77368      .   S
    C81    O85       1.19900      .   S
    Zr16   O85       2.58855      .   S
    C81    O86       0.98829      .   S
    Zr24   O86       2.29495      .   S
    C87    O88       1.09887      .   S
    Zr0    O88       2.46892      .   S
    C87    O89       1.18179      .   S
    Zr29   O89       2.60256      .   S
    C87    O90       0.38660      .   S
    C40    O90       0.77351      .   S
    C87    O91       1.19882      .   S
    Zr17   O91       2.58835      .   S
    C87    O92       0.98833      .   S
    Zr25   O92       2.29509      .   S
    C93    O94       1.18676      .   S
    Zr4    O94       2.60548      .   S
    C93    O95       1.07102      .   S
    Zr29   O95       2.41771      .   S
    C93    O96       0.38782      .   S
    C37    O96       0.77479      .   S
    C93    O97       1.00050      .   S
    Zr0    O97       2.33724      .   S
    C93    O98       1.18839      .   S
    Zr8    O98       2.55255      .   S
    C99    O100      0.38785      .   S
    C48    O100      0.77482      .   S
    C99    O101      1.00042      .   S
    Zr23   O101      2.33685      .   S
    C99    O102      1.18836      .   S
    Zr31   O102      2.55250      .   S
    C99    O103      1.07104      .   S
    Zr10   O103      2.41777      .   S
    C99    O104      1.18670      .   S
    Zr19   O104      2.60529      .   S
    C105   O106      0.38791      .   S
    C44    O106      0.77480      .   S
    C105   O107      1.00047      .   S
    Zr19   O107      2.33690  1_455   S
    C105   O108      1.18834      .   S
    Zr27   O108      2.55246  1_455   S
    C105   O109      1.07105      .   S
    Zr14   O109      2.41776      .   S
    C105   O110      1.18673      .   S
    Zr23   O110      2.60532      .   S
    C111   O112      0.39224      .   S
    C33    O112      0.78198      .   S
    C111   O113      1.14409      .   S
    Zr31   O113      2.48556      .   S
    C111   O114      1.14545      .   S
    Zr8    O114      2.49912      .   S
    C111   O115      1.19144      .   S
    Zr1    O115      2.55232      .   S
    C116   O117      0.39070      .   S
    C55    O117      0.78043      .   S
    C116   O118      1.14734      .   S
    Zr30   O118      2.50982  1_554   S
    C116   O119      1.13422      .   S
    Zr13   O119      2.46790      .   S
    C116   O120      1.19599      .   S
    Zr23   O120      2.57001      .   S
    C121   O122      0.39224      .   S
    C43    O122      0.78198      .   S
    C121   O123      1.14550      .   S
    Zr27   O123      2.49926      .   S
    C121   O124      1.14412  1_455   S
    Zr12   O124      2.48562      .   S
    C121   O125      1.19140      .   S
    Zr18   O125      2.55223      .   S
    C126   O127      0.38795      .   S
    C63    O127      0.77518      .   S
    C126   O128      1.07109      .   S
    Zr9    O128      2.41791  1_556   S
    C126   O129      1.18669      .   S
    Zr16   O129      2.60531      .   S
    C126   O130      1.00043      .   S
    Zr20   O130      2.33685      .   S
    C126   O131      1.18835      .   S
    Zr28   O131      2.55250      .   S
    C132   O133      1.00051      .   S
    Zr2    O133      2.33723      .   S
    C132   O134      1.18838      .   S
    Zr10   O134      2.55256      .   S
    C132   O135      1.18668      .   S
    Zr6    O135      2.60526      .   S
    C132   O136      1.07102      .   S
    Zr31   O136      2.41772      .   S
    C132   O137      0.38782      .   S
    C57    O137      0.77478      .   S
    C138   O139      0.38786      .   S
    C40    O139      0.77475      .   S
    C138   O140      1.00047      .   S
    Zr21   O140      2.33692      .   S
    C138   O141      1.18829      .   S
    Zr29   O141      2.55242      .   S
    C138   O142      1.07104      .   S
    Zr8    O142      2.41770      .   S
    C138   O143      1.18671      .   S
    Zr17   O143      2.60535      .   S
    C144   O145      1.18180      .   S
    Zr8    O145      2.60256      .   S
    C144   O146      1.09872      .   S
    Zr21   O146      2.46843      .   S
    C144   O147      1.19895      .   S
    Zr4    O147      2.58877      .   S
    C144   O148      0.98834      .   S
    Zr12   O148      2.29512      .   S
    C144   O149      0.38664      .   S
    C37    O149      0.77363      .   S
    C150   O151      1.14403      .   S
    Zr28   O151      2.48533  1_545   S
    C150   O152      1.14554      .   S
    Zr11   O152      2.49939  1_556   S
    C150   O153      0.39223      .   S
    C49    O153      0.78198      .   S
    C150   O154      1.19127      .   S
    Zr2    O154      2.55186      .   S
    C155   O156      1.14403      .   S
    Zr29   O156      2.48533  1_545   S
    C155   O157      1.14545      .   S
    Zr10   O157      2.49913      .   S
    C155   O158      0.39224      .   S
    C50    O158      0.78198      .   S
    C155   O159      1.19144      .   S
    Zr3    O159      2.55232      .   S
    C160   O161      1.19140      .   S
    Zr16   O161      2.55223      .   S
    C160   O162      0.39224      .   S
    C62    O162      0.78198      .   S
    C160   O163      1.14550      .   S
    Zr25   O163      2.49926      .   S
    C160   O164      1.14406  1_455   S
    Zr14   O164      2.48539  1_565   S
    C165   O166      1.18192      .   S
    Zr13   O166      2.60265  1_655   S
    C165   O167      1.09909  1_556   S
    Zr16   O167      2.46898      .   S
    C165   O168      0.38680      .   S
    C47    O168      0.77354      .   S
    C165   O169      1.19865      .   S
    Zr1    O169      2.58799      .   S
    C165   O170      0.98837      .   S
    Zr9    O170      2.29531      .   S
    C171   O172      1.13418      .   S
    Zr31   O172      2.46786      .   S
    C171   O173      1.14719      .   S
    Zr12   O173      2.50947      .   S
    C171   O174      0.39070      .   S
    C51    O174      0.78044      .   S
    C171   O175      1.19605      .   S
    Zr5    O175      2.57014      .   S
    C176   O177      1.14730      .   S
    Zr15   O177      2.50970  1_556   S
    C176   O178      1.13413      .   S
    Zr28   O178      2.46763  1_545   S
    C176   O179      0.39071      .   S
    C39    O179      0.78043      .   S
    C176   O180      1.19603      .   S
    Zr6    O180      2.57012      .   S
    C181   O182      1.14550      .   S
    Zr31   O182      2.49926      .   S
    C181   O183      1.14411      .   S
    Zr8    O183      2.48558      .   S
    C181   O184      0.39224      .   S
    C35    O184      0.78198      .   S
    C181   O185      1.19140      .   S
    Zr22   O185      2.55223      .   S
    C186   O187      1.19599      .   S
    Zr21   O187      2.57002      .   S
    C186   O188      1.14734      .   S
    Zr28   O188      2.50983  1_554   S
    C186   O189      1.13415      .   S
    Zr15   O189      2.46768  1_565   S
    C186   O190      0.39070      .   S
    C54    O190      0.78043      .   S
    C191   O192      0.39070      .   S
    C42    O192      0.78043      .   S
    C191   O193      1.13415      .   S
    Zr14   O193      2.46767  1_565   S
    C191   O194      1.14727      .   S
    Zr29   O194      2.50963      .   S
    C191   O195      1.19599      .   S
    Zr20   O195      2.57002      .   S
    C196   O197      1.19054      .   S
    Zr23   O197      2.55145      .   S
    C196   O198      1.14496      .   S
    Zr30   O198      2.50248  1_554   S
    C196   O199      1.14385      .   S
    Zr9    O199      2.48619      .   S
    C196   O200      0.39232      .   S
    C55    O200      0.78208      .   S
    C201   O202      1.19599      .   S
    Zr17   O202      2.57002      .   S
    C201   O203      0.39070      .   S
    C32    O203      0.78043      .   S
    C201   O204      1.13415      .   S
    Zr11   O204      2.46768  1_565   S
    C201   O205      1.14734      .   S
    Zr24   O205      2.50983  1_554   S
    C206   O207      1.19599      .   S
    Zr19   O207      2.57002      .   S
    C206   O208      1.13421      .   S
    Zr9    O208      2.46790      .   S
    C206   O209      1.14734      .   S
    Zr26   O209      2.50982  1_554   S
    C206   O210      0.39070      .   S
    C53    O210      0.78043      .   S
    C211   O212      1.19895      .   S
    Zr2    O212      2.58877      .   S
    C211   O213      0.98833      .   S
    Zr10   O213      2.29510      .   S
    C211   O214      1.18182      .   S
    Zr14   O214      2.60261  1_655   S
    C211   O215      1.09874      .   S
    Zr19   O215      2.46846      .   S
    C211   O216      0.38665      .   S
    C38    O216      0.77363      .   S
    C217   O218      0.38663      .   S
    C36    O218      0.77363      .   S
    C217   O219      1.09872  1_554   S
    Zr7    O219      2.46854      .   S
    C217   O220      1.18181      .   S
    Zr26   O220      2.60262  1_455   S
    C217   O221      1.19883      .   S
    Zr22   O221      2.58837      .   S
    C217   O222      0.98832      .   S
    Zr30   O222      2.29507      .   S
    C223   O224      1.18663      .   S
    Zr7    O224      2.60523      .   S
    C223   O225      1.07112      .   S
    Zr30   O225      2.41803  1_554   S
    C223   O226      0.38797      .   S
    C58    O226      0.77492      .   S
    C223   O227      1.00046      .   S
    Zr3    O227      2.33654      .   S
    C223   O228      1.18831      .   S
    Zr11   O228      2.55283      .   S
    C229   O230      0.39224      .   S
    C45    O230      0.78198      .   S
    C229   O231      1.14409      .   S
    Zr30   O231      2.48555      .   S
    C229   O232      1.14554      .   S
    Zr9    O232      2.49939  1_556   S
    C229   O233      1.19127      .   S
    Zr0    O233      2.55187      .   S
    C234   O235      0.38517      .   S
    C59    O235      0.77217      .   S
    C234   O236      1.18149      .   S
    Zr9    O236      2.60306      .   S
    C234   O237      1.09781  1_556   S
    Zr20   O237      2.47365      .   S
    C234   O238      1.19739      .   S
    Zr5    O238      2.58667      .   S
    C234   O239      0.98866      .   S
    Zr13   O239      2.29619      .   S
    C240   O241      1.14496      .   S
    Zr28   O241      2.50248  1_554   S
    C240   O242      1.14378      .   S
    Zr11   O242      2.48595  1_565   S
    C240   O243      0.39232      .   S
    C54    O243      0.78208      .   S
    C240   O244      1.19054      .   S
    Zr21   O244      2.55145      .   S
    C245   O246      0.38662      .   S
    C48    O246      0.77362      .   S
    C245   O247      1.09887      .   S
    Zr2    O247      2.46892      .   S
    C245   O248      1.18178      .   S
    Zr31   O248      2.60255      .   S
    C245   O249      1.19883      .   S
    Zr19   O249      2.58836      .   S
    C245   O250      0.98833      .   S
    Zr27   O250      2.29509      .   S
    C251   O252      0.39071      .   S
    C62    O252      0.78043      .   S
    C251   O253      1.13415      .   S
    Zr10   O253      2.46766  1_565   S
    C251   O254      1.14727      .   S
    Zr25   O254      2.50963      .   S
    C251   O255      1.19599      .   S
    Zr16   O255      2.57002      .   S
    C256   O257      0.38771      .   S
    C47    O257      0.77443      .   S
    C256   O258      1.18670      .   S
    Zr1    O258      2.60530      .   S
    C256   O259      1.07108      .   S
    Zr24   O259      2.41791  1_554   S
    C256   O260      1.00044      .   S
    Zr5    O260      2.33686  1_655   S
    C256   O261      1.18840      .   S
    Zr13   O261      2.55256  1_655   S
    C262   O263      1.14386  1_455   S
    Zr13   O263      2.48622      .   S
    C262   O264      1.14496      .   S
    Zr26   O264      2.50248  1_554   S
    C262   O265      1.19054      .   S
    Zr19   O265      2.55145      .   S
    C262   O266      0.39232      .   S
    C53    O266      0.78208      .   S
    C267   O268      1.14550      .   S
    Zr29   O268      2.49926      .   S
    C267   O269      1.14405      .   S
    Zr10   O269      2.48536  1_565   S
    C267   O270      0.39224      .   S
    C42    O270      0.78198      .   S
    C267   O271      1.19140      .   S
    Zr20   O271      2.55223      .   S
    C272   O273      1.18182      .   S
    Zr12   O273      2.60263  1_655   S
    C272   O274      1.09869      .   S
    Zr17   O274      2.46840      .   S
    C272   O275      1.19896      .   S
    Zr0    O275      2.58876      .   S
    C272   O276      0.98833      .   S
    Zr8    O276      2.29513      .   S
    C272   O277      0.38670      .   S
    C56    O277      0.77386      .   S
    C278   O279      0.38660      .   S
    C44    O279      0.77350      .   S
    C278   O280      1.09865      .   S
    Zr6    O280      2.46827      .   S
    C278   O281      1.18181      .   S
    Zr27   O281      2.60261  1_455   S
    C278   O282      1.19882      .   S
    Zr23   O282      2.58834      .   S
    C278   O283      0.98833      .   S
    Zr31   O283      2.29509      .   S
    C284   O285      0.38783      .   S
    C38    O285      0.77480      .   S
    C284   O286      1.18677      .   S
    Zr2    O286      2.60550      .   S
    C284   O287      1.07100      .   S
    Zr27   O287      2.41767      .   S
    C284   O288      1.00044      .   S
    Zr6    O288      2.33686  1_655   S
    C284   O289      1.18840      .   S
    Zr14   O289      2.55258  1_655   S
    C290   O291      0.38664      .   S
    C57    O291      0.77362      .   S
    C290   O292      1.18181      .   S
    Zr10   O292      2.60257      .   S
    C290   O293      1.09872      .   S
    Zr23   O293      2.46843      .   S
    C290   O294      1.19879      .   S
    Zr6    O294      2.58827      .   S
    C290   O295      0.98834      .   S
    Zr14   O295      2.29513      .   S
    C296   O297      1.19882      .   S
    Zr20   O297      2.58836      .   S
    C296   O298      0.98833      .   S
    Zr28   O298      2.29507      .   S
    C296   O299      1.09875  1_554   S
    Zr5    O299      2.46856      .   S
    C296   O300      1.18181      .   S
    Zr24   O300      2.60260  1_455   S
    C296   O301      0.38663      .   S
    C34    O301      0.77360      .   S
    C302   O303      1.19882      .   S
    Zr21   O303      2.58837      .   S
    C302   O304      0.98832      .   S
    Zr29   O304      2.29507      .   S
    C302   O305      1.09890      .   S
    Zr4    O305      2.46895      .   S
    C302   O306      1.18180      .   S
    Zr25   O306      2.60261  1_455   S
    C302   O307      0.38663      .   S
    C41    O307      0.77361      .   S
    C308   O309      0.39224      .   S
    C52    O309      0.78199      .   S
    C308   O310      1.19144      .   S
    Zr7    O310      2.55232      .   S
    C308   O311      1.14404  1_655   S
    Zr25   O311      2.48536  1_545   S
    C308   O312      1.14545      .   S
    Zr14   O312      2.49912      .   S
    C313   O314      1.13422      .   S
    Zr12   O314      2.46790      .   S
    C313   O315      1.14727      .   S
    Zr31   O315      2.50963      .   S
    C313   O316      0.39071      .   S
    C35    O316      0.78044      .   S
    C313   O317      1.19599      .   S
    Zr22   O317      2.57002      .   S
    C318   O319      0.38784      .   S
    C36    O319      0.77483      .   S
    C318   O320      1.00045      .   S
    Zr18   O320      2.33688  1_455   S
    C318   O321      1.18837      .   S
    Zr26   O321      2.55253  1_455   S
    C318   O322      1.07109      .   S
    Zr15   O322      2.41791  1_556   S
    C318   O323      1.18670      .   S
    Zr22   O323      2.60531      .   S
    C324   O325      0.39071      .   S
    C49    O325      0.78044      .   S
    C324   O326      1.14730      .   S
    Zr11   O326      2.50970  1_556   S
    C324   O327      1.13413      .   S
    Zr24   O327      2.46763  1_545   S
    C324   O328      1.19585      .   S
    Zr2    O328      2.56961      .   S
    C329   O330      0.39071      .   S
    C60    O330      0.78044      .   S
    C329   O331      1.19585      .   S
    Zr4    O331      2.56962      .   S
    C329   O332      1.13419      .   S
    Zr30   O332      2.46785      .   S
    C329   O333      1.14730      .   S
    Zr13   O333      2.50970  1_556   S
    C334   O335      1.18837      .   S
    Zr9    O335      2.55254      .   S
    C334   O336      1.00041      .   S
    Zr1    O336      2.33683      .   S
    C334   O337      0.38784      .   S
    C59    O337      0.77481      .   S
    C334   O338      1.18669      .   S
    Zr5    O338      2.60528      .   S
    C334   O339      1.07108      .   S
    Zr28   O339      2.41792  1_554   S
    C340   O341      0.38785      .   S
    C41    O341      0.77481      .   S
    C340   O342      1.00046      .   S
    Zr17   O342      2.33690  1_455   S
    C340   O343      1.18836      .   S
    Zr25   O343      2.55251  1_455   S
    C340   O344      1.07103      .   S
    Zr12   O344      2.41770      .   S
    C340   O345      1.18671      .   S
    Zr21   O345      2.60533      .   S
    C346   O347      1.18179      .   S
    Zr11   O347      2.60255      .   S
    C346   O348      1.09875  1_556   S
    Zr22   O348      2.46856      .   S
    C346   O349      0.38665      .   S
    C58    O349      0.77361      .   S
    C346   O350      1.19881      .   S
    Zr7    O350      2.58834      .   S
    C346   O351      0.98833      .   S
    Zr15   O351      2.29509      .   S
    C352   O353      0.39070      .   S
    C33    O353      0.78043      .   S
    C352   O354      1.14719      .   S
    Zr8    O354      2.50947      .   S
    C352   O355      1.13418      .   S
    Zr27   O355      2.46786      .   S
    C352   O356      1.19605      .   S
    Zr1    O356      2.57014      .   S
    C357   O358      0.38785      .   S
    C34    O358      0.77480      .   S
    C357   O359      1.00047      .   S
    Zr16   O359      2.33690  1_455   S
    C357   O360      1.18836      .   S
    Zr24   O360      2.55250  1_455   S
    C357   O361      1.07108      .   S
    Zr13   O361      2.41789  1_556   S
    C357   O362      1.18671      .   S
    Zr20   O362      2.60533      .   S
    C363   O364      0.38812      .   S
    C61    O364      0.77566      .   S
    C363   O365      1.00044      .   S
    Zr22   O365      2.33693      .   S
    C363   O366      1.18836      .   S
    Zr30   O366      2.55247      .   S
    C363   O367      1.18671      .   S
    Zr18   O367      2.60533      .   S
    C363   O368      1.07105      .   S
    Zr11   O368      2.41783  1_556   S
    C369   O370      1.19054      .   S
    Zr17   O370      2.55146      .   S
    C369   O371      0.39232      .   S
    C32    O371      0.78208      .   S
    C369   O372      1.14496      .   S
    Zr24   O372      2.50248  1_554   S
    C369   O373      1.14380  1_455   S
    Zr15   O373      2.48599  1_565   S
    C374   O375      0.39070      .   S
    C52    O375      0.78044      .   S
    C374   O376      1.13411      .   S
    Zr29   O376      2.46762  1_545   S
    C374   O377      1.14719      .   S
    Zr14   O377      2.50947      .   S
    C374   O378      1.19605      .   S
    Zr7    O378      2.57014      .   S
    C379   O380      0.39070      .   S
    C50    O380      0.78043      .   S
    C379   O381      1.19605      .   S
    Zr3    O381      2.57014      .   S
    C379   O382      1.14719      .   S
    Zr10   O382      2.50947      .   S
    C379   O383      1.13411      .   S
    Zr25   O383      2.46762  1_545   S
    C384   O385      1.09819  1_554   S
    Zr3    O385      2.46802      .   S
    C384   O386      1.18160      .   S
    Zr30   O386      2.60249      .   S
    C384   O387      1.19923      .   S
    Zr18   O387      2.58881      .   S
    C384   O388      0.98823      .   S
    Zr26   O388      2.29476      .   S
    C384   O389      0.38614      .   S
    C61    O389      0.77371      .   S
    C390   O391      0.39224      .   S
    C39    O391      0.78198      .   S
    C390   O392      1.19144      .   S
    Zr6    O392      2.55233      .   S
    C390   O393      1.14554      .   S
    Zr15   O393      2.49939  1_556   S
    C390   O394      1.14404  1_655   S
    Zr24   O394      2.48536  1_545   S
    C395   O396      1.19144      .   S
    Zr5    O396      2.55232      .   S
    C395   O397      0.39224      .   S
    C51    O397      0.78198      .   S
    C395   O398      1.14545      .   S
    Zr12   O398      2.49912      .   S
    C395   O399      1.14410  1_655   S
    Zr27   O399      2.48560      .   S
    C400   O401      0.39071      .   S
    C45    O401      0.78043      .   S
    C400   O402      1.19585      .   S
    Zr0    O402      2.56961      .   S
    C400   O403      1.13419      .   S
    Zr26   O403      2.46785      .   S
    C400   O404      1.14730      .   S
    Zr9    O404      2.50969  1_556   S
    C405   O406      1.19127      .   S
    Zr4    O406      2.55186      .   S
    C405   O407      0.39223      .   S
    C60    O407      0.78198      .   S
    C405   O408      1.14410  1_655   S
    Zr26   O408      2.48559      .   S
    C405   O409      1.14554      .   S
    Zr13   O409      2.49939  1_556   S
    C410   O411      0.38672      .   S
    C46    O411      0.77383      .   S
    C410   O412      1.19881      .   S
    Zr3    O412      2.58834      .   S
    C410   O413      0.98833      .   S
    Zr11   O413      2.29510      .   S
    C410   O414      1.18181      .   S
    Zr15   O414      2.60261  1_655   S
    C410   O415      1.09876  1_556   S
    Zr18   O415      2.46856      .   S
    Zr1    O416      2.19707      .   S
    C240   O416      0.78211      .   S
    Zr1    O417      2.20487      .   S
    C201   O417      0.78133      .   S
    Zr18   O418      2.20480      .   S
    C324   O418      0.78131      .   S
    Zr18   O419      2.19644      .   S
    C390   O419      0.78203  1_655   S
    Zr21   O420      2.20480      .   S
    C171   O420      0.78130      .   S
    Zr21   O421      2.19640      .   S
    C111   O421      0.78202      .   S
    C229   O422      0.78202      .   S
    Zr20   O422      2.19640      .   S
    Zr3    O423      2.19708      .   S
    C196   O423      0.78211      .   S
    Zr3    O424      2.20486      .   S
    C206   O424      0.78133      .   S
    Zr0    O425      2.19624      .   S
    C267   O425      0.78197      .   S
    Zr0    O426      2.20456      .   S
    C251   O426      0.78123      .   S
    C116   O427      0.78133      .   S
    Zr7    O427      2.20487      .   S
    Zr7    O428      2.19712      .   S
    C262   O428      0.78212  1_455   S
    Zr19   O429      2.19645      .   S
    C308   O429      0.78203  1_655   S
    Zr19   O430      2.20481      .   S
    C379   O430      0.78130      .   S
    Zr4    O431      2.20456      .   S
    C191   O431      0.78123      .   S
    Zr4    O432      2.19627      .   S
    C160   O432      0.78198  1_455   S
    Zr16   O433      2.19645      .   S
    C405   O433      0.78203  1_655   S
    Zr16   O434      2.20481      .   S
    C400   O434      0.78131      .   S
    Zr6    O435      2.20486      .   S
    C313   O435      0.78133      .   S
    Zr6    O436      2.19650      .   S
    C121   O436      0.78205  1_455   S
    Zr23   O437      2.20480      .   S
    C374   O437      0.78130      .   S
    Zr23   O438      2.19642      .   S
    C155   O438      0.78202      .   S
    Zr20   O439      2.20481      .   S
    C329   O439      0.78131      .   S
    Zr22   O440      2.20480      .   S
    C176   O440      0.78131      .   S
    Zr22   O441      2.19641      .   S
    C150   O441      0.78202      .   S
    Zr5    O442      2.20486      .   S
    C186   O442      0.78133      .   S
    Zr5    O443      2.19712      .   S
    C369   O443      0.78212  1_455   S
    C352   O444      0.78130      .   S
    Zr17   O444      2.20479      .   S
    C181   O445      0.78197      .   S
    Zr2    O445      2.19623      .   S
    Zr2    O446      2.20457      .   S
    C70    O446      0.78123      .   S
    Zr17   O447      2.19645      .   S
    C395   O447      0.78204  1_655   S
