# CIF file generated by openbabel 2.4.90, see http://openbabel.sf.net
data_I
_chemical_name_common ''
_cell_length_a 12.599
_cell_length_b 17.292
_cell_length_c 19.294
_cell_angle_alpha 65.181
_cell_angle_beta 84.55
_cell_angle_gamma 83.659
_space_group_name_H-M_alt 'P 1'
_space_group_name_Hall 'P 1'
loop_
    _symmetry_equiv_pos_as_xyz
    x,y,z
loop_
    _atom_site_label
    _atom_site_type_symbol
    _atom_site_fract_x
    _atom_site_fract_y
    _atom_site_fract_z
    _atom_site_occupancy
    Zr0     Zr   0.35994   0.23529   0.35010   1.000
    Zr1     Zr   0.35994   0.23530   0.85014   1.000
    Zr2     Zr   0.35994   0.73531   0.35010   1.000
    Zr3     Zr   0.35994   0.73531   0.85014   1.000
    Zr4     Zr   0.85994   0.23529   0.35010   1.000
    Zr5     Zr   0.85993   0.23530   0.85014   1.000
    Zr6     Zr   0.85993   0.73531   0.35015   1.000
    Zr7     Zr   0.85993   0.73531   0.85014   1.000
    Zr8     Zr   0.39296   0.43134   0.46672   1.000
    Zr9     Zr   0.39296   0.43134   0.96671   1.000
    Zr10    Zr   0.39296   0.93135   0.46672   1.000
    Zr11    Zr   0.39296   0.93136   0.96671   1.000
    Zr12    Zr   0.89296   0.43134   0.46672   1.000
    Zr13    Zr   0.89296   0.43134   0.96671   1.000
    Zr14    Zr   0.89296   0.93135   0.46672   1.000
    Zr15    Zr   0.89295   0.93136   0.96671   1.000
    Zr16    Zr   0.14005   0.26473   0.14984   1.000
    Zr17    Zr   0.14005   0.26473   0.64983   1.000
    Zr18    Zr   0.14005   0.76474   0.14984   1.000
    Zr19    Zr   0.14004   0.76475   0.64983   1.000
    Zr20    Zr   0.64005   0.26473   0.14984   1.000
    Zr21    Zr   0.64004   0.26473   0.64983   1.000
    Zr22    Zr   0.64004   0.76474   0.14984   1.000
    Zr23    Zr   0.64004   0.76475   0.64983   1.000
    Zr24    Zr   0.10703   0.06868   0.03327   1.000
    Zr25    Zr   0.10703   0.06869   0.53326   1.000
    Zr26    Zr   0.10703   0.56869   0.03327   1.000
    Zr27    Zr   0.10702   0.56870   0.53326   1.000
    Zr28    Zr   0.60703   0.06868   0.03327   1.000
    Zr29    Zr   0.60702   0.06869   0.53326   1.000
    Zr30    Zr   0.60702   0.56869   0.03327   1.000
    Zr31    Zr   0.60702   0.56870   0.53326   1.000
    C32     C    0.13265   0.10779   0.84169   1.000
    C33     C    0.36734   0.39224   0.65827   1.000
    C34     C    0.87302   0.18202   0.07290   1.000
    C35     C    0.63264   0.60780   0.34169   1.000
    C36     C    0.87301   0.68204   0.07290   1.000
    C37     C    0.62697   0.31800   0.42707   1.000
    C38     C    0.12697   0.81801   0.42707   1.000
    C39     C    0.86734   0.89225   0.15829   1.000
    C40     C    0.37301   0.18203   0.57288   1.000
    C41     C    0.87301   0.18203   0.57289   1.000
    C42     C    0.63265   0.10779   0.34169   1.000
    C43     C    0.13265   0.60780   0.34169   1.000
    C44     C    0.87301   0.68204   0.57288   1.000
    C45     C    0.36734   0.39223   0.15829   1.000
    C46     C    0.12697   0.81802   0.92704   1.000
    C47     C    0.12697   0.31800   0.92702   1.000
    C48     C    0.37301   0.68204   0.57289   1.000
    C49     C    0.36734   0.89225   0.15829   1.000
    C50     C    0.36734   0.89225   0.65827   1.000
    C51     C    0.86733   0.39224   0.65827   1.000
    C52     C    0.86733   0.89225   0.65827   1.000
    C53     C    0.13264   0.60781   0.84169   1.000
    C54     C    0.63264   0.10779   0.84169   1.000
    C55     C    0.63264   0.60781   0.84169   1.000
    C56     C    0.12697   0.31800   0.42705   1.000
    C57     C    0.62697   0.81801   0.42707   1.000
    C58     C    0.62696   0.81802   0.92707   1.000
    C59     C    0.62696   0.31800   0.92707   1.000
    C60     C    0.86734   0.39223   0.15829   1.000
    C61     C    0.37302   0.68204   0.07280   1.000
    C62     C    0.13265   0.10779   0.34169   1.000
    C63     C    0.37302   0.18202   0.07286   1.000
    C64     C    0.07324   0.78127   0.90738   1.000
    O65     O    0.09115   0.79368   0.91378   1.000
    O66     O    0.00003   0.77981   0.89213   1.000
    O67     O    0.00829   0.82883   0.92127   1.000
    O68     O    0.16030   0.75652   0.89254   1.000
    O69     O    0.09708   0.71487   0.93832   1.000
    C70     C    0.22541   0.60721   0.34336   1.000
    O71     O    0.19453   0.60714   0.34270   1.000
    O72     O    0.27017   0.55254   0.39003   1.000
    O73     O    0.26191   0.62853   0.36087   1.000
    O74     O    0.19868   0.58688   0.40666   1.000
    O75     O    0.20890   0.65752   0.27941   1.000
    O76     O    0.26387   0.65016   0.32947   1.000
    C77     C    0.07324   0.28125   0.40741   1.000
    O78     O    0.09116   0.29366   0.41379   1.000
    O79     O    0.16031   0.25650   0.39254   1.000
    O80     O    0.09708   0.21485   0.43833   1.000
    O81     O    0.00004   0.27979   0.39215   1.000
    O82     O    0.00829   0.32881   0.42130   1.000
    C83     C    0.31926   0.14702   0.05158   1.000
    O84     O    0.40646   0.12313   0.03693   1.000
    O85     O    0.34469   0.16478   0.99114   1.000
    O86     O    0.33719   0.15856   0.05878   1.000
    O87     O    0.25471   0.17797   0.08434   1.000
    O88     O    0.24645   0.12896   0.05519   1.000
    C89     C    0.31926   0.14703   0.55159   1.000
    O90     O    0.34469   0.16479   0.49114   1.000
    O91     O    0.40646   0.12314   0.53693   1.000
    O92     O    0.33719   0.15857   0.55881   1.000
    O93     O    0.25470   0.17798   0.58434   1.000
    O94     O    0.24645   0.12897   0.55520   1.000
    C95     C    0.57324   0.28125   0.40743   1.000
    O96     O    0.66031   0.25650   0.39256   1.000
    O97     O    0.59708   0.21485   0.43835   1.000
    O98     O    0.59116   0.29365   0.41383   1.000
    O99     O    0.50004   0.27979   0.39216   1.000
    O100    O    0.50829   0.32880   0.42132   1.000
    C101    C    0.42674   0.71879   0.59255   1.000
    O102    O    0.40882   0.70638   0.58615   1.000
    O103    O    0.49994   0.72024   0.60781   1.000
    O104    O    0.49169   0.67123   0.57866   1.000
    O105    O    0.40290   0.78519   0.56163   1.000
    O106    O    0.33967   0.74353   0.60741   1.000
    C107    C    0.92674   0.71879   0.59254   1.000
    O108    O    0.90882   0.70638   0.58614   1.000
    O109    O    0.99994   0.72024   0.60780   1.000
    O110    O    0.99169   0.67123   0.57866   1.000
    O111    O    0.90290   0.78518   0.56163   1.000
    O112    O    0.83967   0.74353   0.60741   1.000
    C113    C    0.46093   0.38852   0.65854   1.000
    O114    O    0.42963   0.39001   0.65857   1.000
    O115    O    0.50261   0.44395   0.61148   1.000
    O116    O    0.44910   0.40961   0.59484   1.000
    O117    O    0.51087   0.36796   0.64062   1.000
    O118    O    0.50844   0.34663   0.67200   1.000
    O119    O    0.43842   0.33927   0.72208   1.000
    C120    C    0.72541   0.60722   0.84335   1.000
    O121    O    0.69452   0.60714   0.84269   1.000
    O122    O    0.76190   0.62854   0.86088   1.000
    O123    O    0.69868   0.58688   0.90666   1.000
    O124    O    0.77016   0.55254   0.89002   1.000
    O125    O    0.70889   0.65752   0.77940   1.000
    O126    O    0.76386   0.65017   0.82947   1.000
    C127    C    0.03906   0.61152   0.34143   1.000
    O128    O    0.07035   0.61003   0.34140   1.000
    O129    O    0.98911   0.63208   0.35935   1.000
    O130    O    0.05089   0.59043   0.40513   1.000
    O131    O    0.99737   0.55609   0.38850   1.000
    O132    O    0.06157   0.66077   0.27789   1.000
    O133    O    0.99154   0.65341   0.32797   1.000
    C134    C    0.42675   0.21877   0.09255   1.000
    O135    O    0.40883   0.20636   0.08615   1.000
    O136    O    0.40291   0.28517   0.06163   1.000
    O137    O    0.33968   0.24352   0.10742   1.000
    O138    O    0.49995   0.22023   0.10781   1.000
    O139    O    0.49169   0.17121   0.07867   1.000
    C140    C    0.57324   0.78126   0.40743   1.000
    O141    O    0.50004   0.77981   0.39216   1.000
    O142    O    0.50829   0.82882   0.42132   1.000
    O143    O    0.66031   0.75652   0.39257   1.000
    O144    O    0.59708   0.71487   0.43835   1.000
    O145    O    0.59116   0.79367   0.41383   1.000
    C146    C    0.42674   0.21877   0.59253   1.000
    O147    O    0.40883   0.20636   0.58614   1.000
    O148    O    0.49995   0.22023   0.60780   1.000
    O149    O    0.49169   0.17122   0.57866   1.000
    O150    O    0.40290   0.28517   0.56162   1.000
    O151    O    0.33968   0.24352   0.60740   1.000
    C152    C    0.68073   0.35300   0.44837   1.000
    O153    O    0.59353   0.37689   0.46304   1.000
    O154    O    0.65530   0.33524   0.50882   1.000
    O155    O    0.74528   0.32205   0.41562   1.000
    O156    O    0.75354   0.37106   0.44477   1.000
    O157    O    0.66280   0.34147   0.44115   1.000
    C158    C    0.46093   0.88853   0.15855   1.000
    O159    O    0.50262   0.94395   0.11149   1.000
    O160    O    0.44910   0.90962   0.09485   1.000
    O161    O    0.51087   0.86797   0.14063   1.000
    O162    O    0.42963   0.89002   0.15858   1.000
    O163    O    0.43842   0.83928   0.22208   1.000
    O164    O    0.50844   0.84664   0.17201   1.000
    C165    C    0.46093   0.88853   0.65854   1.000
    O166    O    0.50261   0.94396   0.61148   1.000
    O167    O    0.44910   0.90962   0.59484   1.000
    O168    O    0.51087   0.86797   0.64062   1.000
    O169    O    0.42963   0.89002   0.65857   1.000
    O170    O    0.50844   0.84664   0.67200   1.000
    O171    O    0.43841   0.83929   0.72208   1.000
    C172    C    0.03906   0.11151   0.34143   1.000
    O173    O    0.06157   0.16075   0.27789   1.000
    O174    O    0.99154   0.15339   0.32796   1.000
    O175    O    0.07035   0.11002   0.34140   1.000
    O176    O    0.05089   0.09042   0.40513   1.000
    O177    O    0.98912   0.13207   0.35934   1.000
    O178    O    0.99737   0.05608   0.38850   1.000
    C179    C    0.18073   0.35300   0.94833   1.000
    O180    O    0.09353   0.37690   0.96301   1.000
    O181    O    0.15530   0.33524   0.00880   1.000
    O182    O    0.16280   0.34147   0.94110   1.000
    O183    O    0.24528   0.32205   0.91560   1.000
    O184    O    0.25354   0.37106   0.94474   1.000
    C185    C    0.77457   0.39283   0.65660   1.000
    O186    O    0.72981   0.44750   0.60994   1.000
    O187    O    0.80130   0.41316   0.59331   1.000
    O188    O    0.73807   0.37151   0.63908   1.000
    O189    O    0.80545   0.39290   0.65727   1.000
    O190    O    0.79108   0.34252   0.72056   1.000
    O191    O    0.73611   0.34988   0.67049   1.000
    C192    C    0.77457   0.89284   0.15662   1.000
    O193    O    0.80130   0.91317   0.09331   1.000
    O194    O    0.73807   0.87152   0.13910   1.000
    O195    O    0.72982   0.94750   0.10995   1.000
    O196    O    0.80545   0.89291   0.15728   1.000
    O197    O    0.79108   0.84253   0.22058   1.000
    O198    O    0.73611   0.84989   0.17050   1.000
    C199    C    0.53905   0.61152   0.34143   1.000
    O200    O    0.48911   0.63208   0.35934   1.000
    O201    O    0.55088   0.59043   0.40513   1.000
    O202    O    0.49737   0.55609   0.38850   1.000
    O203    O    0.57035   0.61003   0.34140   1.000
    O204    O    0.56157   0.66077   0.27789   1.000
    O205    O    0.49154   0.65341   0.32796   1.000
    C206    C    0.72541   0.10720   0.84335   1.000
    O207    O    0.70889   0.15751   0.77940   1.000
    O208    O    0.76387   0.15015   0.82947   1.000
    O209    O    0.69868   0.08687   0.90666   1.000
    O210    O    0.77016   0.05254   0.89002   1.000
    O211    O    0.76191   0.12852   0.86088   1.000
    O212    O    0.69453   0.10713   0.84269   1.000
    C213    C    0.72541   0.10720   0.34336   1.000
    O214    O    0.69453   0.10712   0.34270   1.000
    O215    O    0.77017   0.05253   0.39003   1.000
    O216    O    0.76191   0.12852   0.36087   1.000
    O217    O    0.69868   0.08686   0.40666   1.000
    O218    O    0.70890   0.15751   0.27941   1.000
    O219    O    0.76387   0.15015   0.32947   1.000
    C220    C    0.53905   0.61152   0.84130   1.000
    O221    O    0.56156   0.66077   0.77782   1.000
    O222    O    0.49154   0.65341   0.82790   1.000
    O223    O    0.48911   0.63209   0.85918   1.000
    O224    O    0.55088   0.59043   0.90497   1.000
    O225    O    0.49736   0.55610   0.88833   1.000
    O226    O    0.57035   0.61003   0.84133   1.000
    C227    C    0.22541   0.10720   0.84335   1.000
    O228    O    0.26387   0.15015   0.82947   1.000
    O229    O    0.20890   0.15751   0.77940   1.000
    O230    O    0.19453   0.10713   0.84269   1.000
    O231    O    0.27016   0.05254   0.89002   1.000
    O232    O    0.26191   0.12852   0.86088   1.000
    O233    O    0.19868   0.08687   0.90666   1.000
    C234    C    0.22541   0.60722   0.84335   1.000
    O235    O    0.26387   0.65017   0.82947   1.000
    O236    O    0.20889   0.65752   0.77940   1.000
    O237    O    0.27016   0.55254   0.89002   1.000
    O238    O    0.26191   0.62854   0.86088   1.000
    O239    O    0.19868   0.58688   0.90666   1.000
    O240    O    0.19453   0.60714   0.84269   1.000
    C241    C    0.18073   0.85302   0.44837   1.000
    O242    O    0.24528   0.82206   0.41562   1.000
    O243    O    0.25354   0.87108   0.44477   1.000
    O244    O    0.09353   0.87691   0.46304   1.000
    O245    O    0.15530   0.83526   0.50882   1.000
    O246    O    0.16280   0.84148   0.44115   1.000
    C247    C    0.81925   0.64704   0.05160   1.000
    O248    O    0.83719   0.65857   0.05882   1.000
    O249    O    0.84468   0.66480   0.99116   1.000
    O250    O    0.90646   0.62314   0.03694   1.000
    O251    O    0.75470   0.67799   0.08435   1.000
    O252    O    0.74644   0.62898   0.05521   1.000
    C253    C    0.57323   0.78127   0.90740   1.000
    O254    O    0.66030   0.75652   0.89255   1.000
    O255    O    0.59707   0.71487   0.93833   1.000
    O256    O    0.59115   0.79368   0.91380   1.000
    O257    O    0.50003   0.77981   0.89213   1.000
    O258    O    0.50829   0.82883   0.92128   1.000
    C259    C    0.46093   0.38851   0.15855   1.000
    O260    O    0.42964   0.39000   0.15858   1.000
    O261    O    0.50262   0.44394   0.11149   1.000
    O262    O    0.44910   0.40961   0.09485   1.000
    O263    O    0.51087   0.36795   0.14063   1.000
    O264    O    0.43842   0.33927   0.22208   1.000
    O265    O    0.50845   0.34662   0.17201   1.000
    C266    C    0.68072   0.35300   0.94813   1.000
    O267    O    0.66279   0.34147   0.94103   1.000
    O268    O    0.59352   0.37690   0.96274   1.000
    O269    O    0.65530   0.33524   0.00852   1.000
    O270    O    0.74528   0.32205   0.91550   1.000
    O271    O    0.75353   0.37106   0.94464   1.000
    C272    C    0.53905   0.11151   0.84130   1.000
    O273    O    0.48911   0.13207   0.85918   1.000
    O274    O    0.55088   0.09042   0.90497   1.000
    O275    O    0.49737   0.05609   0.88833   1.000
    O276    O    0.57035   0.11002   0.84133   1.000
    O277    O    0.56156   0.16076   0.77782   1.000
    O278    O    0.49154   0.15340   0.82790   1.000
    C279    C    0.31925   0.64704   0.55159   1.000
    O280    O    0.33719   0.65858   0.55881   1.000
    O281    O    0.34468   0.66480   0.49114   1.000
    O282    O    0.40645   0.62315   0.53693   1.000
    O283    O    0.25470   0.67800   0.58434   1.000
    O284    O    0.24644   0.62898   0.55520   1.000
    C285    C    0.22542   0.10720   0.34336   1.000
    O286    O    0.19453   0.10712   0.34270   1.000
    O287    O    0.27017   0.05253   0.39003   1.000
    O288    O    0.19868   0.08686   0.40666   1.000
    O289    O    0.26191   0.12852   0.36087   1.000
    O290    O    0.26387   0.15015   0.32947   1.000
    O291    O    0.20890   0.15751   0.27941   1.000
    C292    C    0.07324   0.28125   0.90742   1.000
    O293    O    0.09116   0.29366   0.91381   1.000
    O294    O    0.16031   0.25651   0.89256   1.000
    O295    O    0.09708   0.21485   0.93834   1.000
    O296    O    0.00003   0.27980   0.89216   1.000
    O297    O    0.00829   0.32881   0.92131   1.000
    C298    C    0.03905   0.61152   0.84130   1.000
    O299    O    0.98911   0.63209   0.85918   1.000
    O300    O    0.99737   0.55610   0.88833   1.000
    O301    O    0.05088   0.59043   0.90497   1.000
    O302    O    0.06156   0.66077   0.77782   1.000
    O303    O    0.99154   0.65341   0.82790   1.000
    O304    O    0.07035   0.61003   0.84133   1.000
    C305    C    0.53906   0.11150   0.34143   1.000
    O306    O    0.48912   0.13207   0.35934   1.000
    O307    O    0.55089   0.09042   0.40513   1.000
    O308    O    0.49737   0.05608   0.38850   1.000
    O309    O    0.57035   0.11001   0.34140   1.000
    O310    O    0.49154   0.15339   0.32796   1.000
    O311    O    0.56157   0.16075   0.27789   1.000
    C312    C    0.18073   0.35300   0.44838   1.000
    O313    O    0.09353   0.37689   0.46304   1.000
    O314    O    0.15530   0.33524   0.50882   1.000
    O315    O    0.24529   0.32204   0.41562   1.000
    O316    O    0.25354   0.37106   0.44478   1.000
    O317    O    0.16280   0.34146   0.44115   1.000
    C318    C    0.81925   0.64705   0.55159   1.000
    O319    O    0.83718   0.65858   0.55881   1.000
    O320    O    0.84468   0.66480   0.49115   1.000
    O321    O    0.90645   0.62315   0.53693   1.000
    O322    O    0.75470   0.67800   0.58434   1.000
    O323    O    0.74644   0.62898   0.55520   1.000
    C324    C    0.07324   0.78126   0.40744   1.000
    O325    O    0.09116   0.79367   0.41383   1.000
    O326    O    0.16031   0.75651   0.39256   1.000
    O327    O    0.09708   0.71486   0.43835   1.000
    O328    O    0.00004   0.77980   0.39218   1.000
    O329    O    0.00829   0.82882   0.42132   1.000
    C330    C    0.68073   0.85301   0.44837   1.000
    O331    O    0.66279   0.84148   0.44115   1.000
    O332    O    0.59353   0.87691   0.46304   1.000
    O333    O    0.65530   0.83526   0.50882   1.000
    O334    O    0.74528   0.82206   0.41563   1.000
    O335    O    0.75354   0.87107   0.44477   1.000
    C336    C    0.81926   0.14702   0.05161   1.000
    O337    O    0.75470   0.17797   0.08435   1.000
    O338    O    0.74645   0.12896   0.05521   1.000
    O339    O    0.84468   0.16478   0.99116   1.000
    O340    O    0.90646   0.12313   0.03694   1.000
    O341    O    0.83719   0.15856   0.05883   1.000
    C342    C    0.81925   0.14703   0.55160   1.000
    O343    O    0.75470   0.17798   0.58434   1.000
    O344    O    0.74644   0.12897   0.55520   1.000
    O345    O    0.84468   0.16478   0.49114   1.000
    O346    O    0.90645   0.12313   0.53693   1.000
    O347    O    0.83718   0.15856   0.55882   1.000
    C348    C    0.96092   0.88853   0.65854   1.000
    O349    O    0.92963   0.89002   0.65857   1.000
    O350    O    0.00844   0.84664   0.67200   1.000
    O351    O    0.93841   0.83929   0.72208   1.000
    O352    O    0.00261   0.94396   0.61148   1.000
    O353    O    0.94909   0.90962   0.59484   1.000
    O354    O    0.01086   0.86797   0.64062   1.000
    C355    C    0.72541   0.60721   0.34336   1.000
    O356    O    0.77016   0.55254   0.39003   1.000
    O357    O    0.76191   0.62853   0.36089   1.000
    O358    O    0.69868   0.58688   0.40666   1.000
    O359    O    0.69453   0.60714   0.34270   1.000
    O360    O    0.76387   0.65016   0.32948   1.000
    O361    O    0.70890   0.65752   0.27941   1.000
    C362    C    0.92674   0.71878   0.09255   1.000
    O363    O    0.90883   0.70638   0.08616   1.000
    O364    O    0.99995   0.72024   0.10781   1.000
    O365    O    0.99169   0.67123   0.07867   1.000
    O366    O    0.90290   0.78518   0.06163   1.000
    O367    O    0.83967   0.74353   0.10742   1.000
    C368    C    0.27457   0.89284   0.15662   1.000
    O369    O    0.30546   0.89291   0.15728   1.000
    O370    O    0.30130   0.91317   0.09331   1.000
    O371    O    0.23807   0.87152   0.13910   1.000
    O372    O    0.22982   0.94750   0.10995   1.000
    O373    O    0.29109   0.84253   0.22056   1.000
    O374    O    0.23611   0.84989   0.17050   1.000
    C375    C    0.77457   0.39282   0.15662   1.000
    O376    O    0.80546   0.39290   0.15728   1.000
    O377    O    0.79109   0.34251   0.22056   1.000
    O378    O    0.73611   0.34987   0.17050   1.000
    O379    O    0.72982   0.44750   0.10995   1.000
    O380    O    0.80130   0.41316   0.09331   1.000
    O381    O    0.73807   0.37150   0.13910   1.000
    C382    C    0.57324   0.28125   0.90742   1.000
    O383    O    0.50829   0.32881   0.92131   1.000
    O384    O    0.50004   0.27980   0.89216   1.000
    O385    O    0.59115   0.29366   0.91382   1.000
    O386    O    0.66030   0.25651   0.89256   1.000
    O387    O    0.59708   0.21485   0.93834   1.000
    C388    C    0.92674   0.21878   0.59254   1.000
    O389    O    0.90882   0.20637   0.58615   1.000
    O390    O    0.99995   0.22023   0.60780   1.000
    O391    O    0.99169   0.17122   0.57866   1.000
    O392    O    0.90290   0.28517   0.56163   1.000
    O393    O    0.83967   0.24352   0.60740   1.000
    C394    C    0.68072   0.85301   0.94837   1.000
    O395    O    0.59352   0.87691   0.96304   1.000
    O396    O    0.65529   0.83526   0.00882   1.000
    O397    O    0.66279   0.84148   0.94115   1.000
    O398    O    0.74528   0.82206   0.91563   1.000
    O399    O    0.75353   0.87108   0.94477   1.000
    C400    C    0.27457   0.39283   0.65660   1.000
    O401    O    0.30545   0.39290   0.65727   1.000
    O402    O    0.30130   0.41316   0.59331   1.000
    O403    O    0.23807   0.37151   0.63908   1.000
    O404    O    0.22982   0.44750   0.60994   1.000
    O405    O    0.29109   0.34252   0.72056   1.000
    O406    O    0.23611   0.34988   0.67049   1.000
    C407    C    0.92675   0.21877   0.09255   1.000
    O408    O    0.90883   0.20636   0.08616   1.000
    O409    O    0.99995   0.22023   0.10781   1.000
    O410    O    0.99169   0.17121   0.07867   1.000
    O411    O    0.90290   0.28517   0.06163   1.000
    O412    O    0.83968   0.24352   0.10741   1.000
    C413    C    0.42674   0.71879   0.09254   1.000
    O414    O    0.40883   0.70638   0.08613   1.000
    O415    O    0.49995   0.72024   0.10781   1.000
    O416    O    0.49169   0.67123   0.07866   1.000
    O417    O    0.33968   0.74353   0.10741   1.000
    O418    O    0.40290   0.78519   0.06163   1.000
    C419    C    0.03906   0.11151   0.84130   1.000
    O420    O    0.06157   0.16076   0.77782   1.000
    O421    O    0.99154   0.15340   0.82790   1.000
    O422    O    0.07035   0.11002   0.84133   1.000
    O423    O    0.98911   0.13207   0.85918   1.000
    O424    O    0.05089   0.09042   0.90497   1.000
    O425    O    0.99737   0.05609   0.88833   1.000
    C426    C    0.77457   0.89284   0.65660   1.000
    O427    O    0.80545   0.89292   0.65727   1.000
    O428    O    0.72981   0.94751   0.60994   1.000
    O429    O    0.80130   0.91317   0.59331   1.000
    O430    O    0.73807   0.87152   0.63908   1.000
    O431    O    0.79108   0.84253   0.72056   1.000
    O432    O    0.73611   0.84989   0.67049   1.000
    C433    C    0.27457   0.89284   0.65660   1.000
    O434    O    0.30545   0.89292   0.65727   1.000
    O435    O    0.29108   0.84253   0.72056   1.000
    O436    O    0.23611   0.84989   0.67049   1.000
    O437    O    0.30130   0.91317   0.59331   1.000
    O438    O    0.23807   0.87152   0.63908   1.000
    O439    O    0.22982   0.94751   0.60994   1.000
    C440    C    0.31926   0.64703   0.05154   1.000
    O441    O    0.34468   0.66479   0.99113   1.000
    O442    O    0.40646   0.62314   0.03691   1.000
    O443    O    0.25470   0.67799   0.08432   1.000
    O444    O    0.24645   0.62897   0.05518   1.000
    O445    O    0.33719   0.65857   0.05872   1.000
    C446    C    0.96093   0.88853   0.15855   1.000
    O447    O    0.92963   0.89002   0.15858   1.000
    O448    O    0.00844   0.84664   0.17201   1.000
    O449    O    0.93841   0.83928   0.22209   1.000
    O450    O    0.94909   0.90962   0.09485   1.000
    O451    O    0.01087   0.86797   0.14063   1.000
    O452    O    0.00261   0.94395   0.11149   1.000
    C453    C    0.96092   0.38852   0.65854   1.000
    O454    O    0.00844   0.34663   0.67200   1.000
    O455    O    0.93841   0.33927   0.72208   1.000
    O456    O    0.92963   0.39001   0.65857   1.000
    O457    O    0.94910   0.40961   0.59484   1.000
    O458    O    0.01087   0.36796   0.64062   1.000
    O459    O    0.00261   0.44395   0.61148   1.000
    C460    C    0.27457   0.39282   0.15662   1.000
    O461    O    0.30546   0.39290   0.15728   1.000
    O462    O    0.29109   0.34251   0.22056   1.000
    O463    O    0.23612   0.34987   0.17050   1.000
    O464    O    0.22982   0.44749   0.10995   1.000
    O465    O    0.30130   0.41316   0.09331   1.000
    O466    O    0.23808   0.37150   0.13910   1.000
    C467    C    0.96093   0.38851   0.15855   1.000
    O468    O    0.00844   0.34662   0.17201   1.000
    O469    O    0.93842   0.33927   0.22208   1.000
    O470    O    0.92963   0.39000   0.15858   1.000
    O471    O    0.00262   0.44394   0.11149   1.000
    O472    O    0.94910   0.40961   0.09485   1.000
    O473    O    0.01087   0.36795   0.14063   1.000
    C474    C    0.18073   0.85301   0.94837   1.000
    O475    O    0.16279   0.84148   0.94115   1.000
    O476    O    0.24528   0.82206   0.91563   1.000
    O477    O    0.25353   0.87107   0.94477   1.000
    O478    O    0.09352   0.87691   0.96304   1.000
    O479    O    0.15530   0.83526   0.00882   1.000
loop_
    _geom_bond_atom_site_label_1
    _geom_bond_atom_site_label_2
    _geom_bond_distance
    _geom_bond_site_symmetry_2
    _ccdc_geom_bond_type
    C64    O65       0.38786      .   S
    C46    O65       0.77495      .   S
    C64    O66       1.00043      .   S
    Zr7    O66       2.33647  1_655   S
    C64    O67       1.18840      .   S
    Zr15   O67       2.55294  1_655   S
    C64    O68       1.18659      .   S
    Zr3    O68       2.60519      .   S
    C64    O69       1.07115      .   S
    Zr26   O69       2.41807  1_554   S
    C70    O71       0.39070      .   S
    C43    O71       0.78043      .   S
    C70    O72       1.13422      .   S
    Zr8    O72       2.46790      .   S
    C70    O73       0.79563      .   S
    Zr2    O73       2.26060      .   S
    C70    O74       1.14727      .   S
    Zr27   O74       2.50963      .   S
    C70    O75       1.19599      .   S
    Zr18   O75       2.57002      .   S
    C70    O76       0.86365      .   S
    Zr2    O76       2.18362      .   S
    C77    O78       0.38772      .   S
    C56    O78       0.77485      .   S
    C77    O79       1.18671      .   S
    Zr0    O79       2.60543      .   S
    C77    O80       1.07107      .   S
    Zr25   O80       2.41782      .   S
    C77    O81       1.00047      .   S
    Zr4    O81       2.33711  1_655   S
    C77    O82       1.18846      .   S
    Zr12   O82       2.55269  1_655   S
    C83    O84       1.18171      .   S
    Zr28   O84       2.60253      .   S
    C83    O85       1.09849  1_554   S
    Zr1    O85       2.46831      .   S
    C83    O86       0.38642      .   S
    C63    O86       0.77368      .   S
    C83    O87       1.19900      .   S
    Zr16   O87       2.58855      .   S
    C83    O88       0.98829      .   S
    Zr24   O88       2.29495      .   S
    C89    O90       1.09887      .   S
    Zr0    O90       2.46892      .   S
    C89    O91       1.18179      .   S
    Zr29   O91       2.60256      .   S
    C89    O92       0.38660      .   S
    C40    O92       0.77351      .   S
    C89    O93       1.19882      .   S
    Zr17   O93       2.58835      .   S
    C89    O94       0.98833      .   S
    Zr25   O94       2.29509      .   S
    C95    O96       1.18676      .   S
    Zr4    O96       2.60548      .   S
    C95    O97       1.07102      .   S
    Zr29   O97       2.41771      .   S
    C95    O98       0.38782      .   S
    C37    O98       0.77479      .   S
    C95    O99       1.00050      .   S
    Zr0    O99       2.33724      .   S
    C95    O100      1.18839      .   S
    Zr8    O100      2.55255      .   S
    C101   O102      0.38785      .   S
    C48    O102      0.77482      .   S
    C101   O103      1.00042      .   S
    Zr23   O103      2.33685      .   S
    C101   O104      1.18836      .   S
    Zr31   O104      2.55250      .   S
    C101   O105      1.07104      .   S
    Zr10   O105      2.41777      .   S
    C101   O106      1.18670      .   S
    Zr19   O106      2.60529      .   S
    C107   O108      0.38791      .   S
    C44    O108      0.77480      .   S
    C107   O109      1.00047      .   S
    Zr19   O109      2.33690  1_455   S
    C107   O110      1.18834      .   S
    Zr27   O110      2.55246  1_455   S
    C107   O111      1.07105      .   S
    Zr14   O111      2.41776      .   S
    C107   O112      1.18673      .   S
    Zr23   O112      2.60532      .   S
    C113   O114      0.39224      .   S
    C33    O114      0.78198      .   S
    C113   O115      1.14409      .   S
    Zr31   O115      2.48556      .   S
    C113   O116      1.14545      .   S
    Zr8    O116      2.49912      .   S
    C113   O117      0.80889      .   S
    Zr21   O117      2.23902      .   S
    C113   O118      0.85225      .   S
    Zr21   O118      2.18922      .   S
    C113   O119      1.19144      .   S
    Zr1    O119      2.55232      .   S
    C120   O121      0.39070      .   S
    C55    O121      0.78043      .   S
    C120   O122      0.79579      .   S
    Zr7    O122      2.26082      .   S
    C120   O123      1.14734      .   S
    Zr30   O123      2.50982  1_554   S
    C120   O124      1.13422      .   S
    Zr13   O124      2.46790      .   S
    C120   O125      1.19599      .   S
    Zr23   O125      2.57001      .   S
    C120   O126      0.86368      .   S
    Zr7    O126      2.18400      .   S
    C127   O128      0.39224      .   S
    C43    O128      0.78198      .   S
    C127   O129      0.80894  1_455   S
    Zr6    O129      2.23910      .   S
    C127   O130      1.14550      .   S
    Zr27   O130      2.49926      .   S
    C127   O131      1.14412  1_455   S
    Zr12   O131      2.48562      .   S
    C127   O132      1.19140      .   S
    Zr18   O132      2.55223      .   S
    C127   O133      0.85227  1_455   S
    Zr6    O133      2.18934      .   S
    C134   O135      0.38795      .   S
    C63    O135      0.77518      .   S
    C134   O136      1.07109      .   S
    Zr9    O136      2.41791  1_556   S
    C134   O137      1.18669      .   S
    Zr16   O137      2.60531      .   S
    C134   O138      1.00043      .   S
    Zr20   O138      2.33685      .   S
    C134   O139      1.18835      .   S
    Zr28   O139      2.55250      .   S
    C140   O141      1.00051      .   S
    Zr2    O141      2.33723      .   S
    C140   O142      1.18838      .   S
    Zr10   O142      2.55256      .   S
    C140   O143      1.18668      .   S
    Zr6    O143      2.60526      .   S
    C140   O144      1.07102      .   S
    Zr31   O144      2.41772      .   S
    C140   O145      0.38782      .   S
    C57    O145      0.77478      .   S
    C146   O147      0.38786      .   S
    C40    O147      0.77475      .   S
    C146   O148      1.00047      .   S
    Zr21   O148      2.33692      .   S
    C146   O149      1.18829      .   S
    Zr29   O149      2.55242      .   S
    C146   O150      1.07104      .   S
    Zr8    O150      2.41770      .   S
    C146   O151      1.18671      .   S
    Zr17   O151      2.60535      .   S
    C152   O153      1.18180      .   S
    Zr8    O153      2.60256      .   S
    C152   O154      1.09872      .   S
    Zr21   O154      2.46843      .   S
    C152   O155      1.19895      .   S
    Zr4    O155      2.58877      .   S
    C152   O156      0.98834      .   S
    Zr12   O156      2.29512      .   S
    C152   O157      0.38664      .   S
    C37    O157      0.77363      .   S
    C158   O159      1.14403      .   S
    Zr28   O159      2.48533  1_545   S
    C158   O160      1.14554      .   S
    Zr11   O160      2.49939  1_556   S
    C158   O161      0.80889      .   S
    Zr22   O161      2.23903      .   S
    C158   O162      0.39223      .   S
    C49    O162      0.78198      .   S
    C158   O163      1.19127      .   S
    Zr2    O163      2.55186      .   S
    C158   O164      0.85226      .   S
    Zr22   O164      2.18923      .   S
    C165   O166      1.14403      .   S
    Zr29   O166      2.48533  1_545   S
    C165   O167      1.14545      .   S
    Zr10   O167      2.49913      .   S
    C165   O168      0.80890      .   S
    Zr23   O168      2.23903      .   S
    C165   O169      0.39224      .   S
    C50    O169      0.78198      .   S
    C165   O170      0.85226      .   S
    Zr23   O170      2.18924      .   S
    C165   O171      1.19144      .   S
    Zr3    O171      2.55232      .   S
    C172   O173      1.19140      .   S
    Zr16   O173      2.55223      .   S
    C172   O174      0.85227  1_455   S
    Zr4    O174      2.18903      .   S
    C172   O175      0.39224      .   S
    C62    O175      0.78198      .   S
    C172   O176      1.14550      .   S
    Zr25   O176      2.49926      .   S
    C172   O177      0.80880  1_455   S
    Zr4    O177      2.23894      .   S
    C172   O178      1.14406  1_455   S
    Zr14   O178      2.48539  1_565   S
    C179   O180      1.18192      .   S
    Zr13   O180      2.60265  1_655   S
    C179   O181      1.09909  1_556   S
    Zr16   O181      2.46898      .   S
    C179   O182      0.38680      .   S
    C47    O182      0.77354      .   S
    C179   O183      1.19865      .   S
    Zr1    O183      2.58799      .   S
    C179   O184      0.98837      .   S
    Zr9    O184      2.29531      .   S
    C185   O186      1.13418      .   S
    Zr31   O186      2.46786      .   S
    C185   O187      1.14719      .   S
    Zr12   O187      2.50947      .   S
    C185   O188      0.79574      .   S
    Zr21   O188      2.26077      .   S
    C185   O189      0.39070      .   S
    C51    O189      0.78044      .   S
    C185   O190      1.19605      .   S
    Zr5    O190      2.57014      .   S
    C185   O191      0.86367      .   S
    Zr21   O191      2.18391      .   S
    C192   O193      1.14730      .   S
    Zr15   O193      2.50970  1_556   S
    C192   O194      0.79576      .   S
    Zr22   O194      2.26077      .   S
    C192   O195      1.13413      .   S
    Zr28   O195      2.46763  1_545   S
    C192   O196      0.39071      .   S
    C39    O196      0.78043      .   S
    C192   O197      1.19603      .   S
    Zr6    O197      2.57012      .   S
    C192   O198      0.86367      .   S
    Zr22   O198      2.18391      .   S
    C199   O200      0.80879      .   S
    Zr2    O200      2.23891      .   S
    C199   O201      1.14550      .   S
    Zr31   O201      2.49926      .   S
    C199   O202      1.14411      .   S
    Zr8    O202      2.48558      .   S
    C199   O203      0.39224      .   S
    C35    O203      0.78198      .   S
    C199   O204      1.19140      .   S
    Zr22   O204      2.55223      .   S
    C199   O205      0.85226      .   S
    Zr2    O205      2.18899      .   S
    C206   O207      1.19599      .   S
    Zr21   O207      2.57002      .   S
    C206   O208      0.86368      .   S
    Zr5    O208      2.18399      .   S
    C206   O209      1.14734      .   S
    Zr28   O209      2.50983  1_554   S
    C206   O210      1.13415      .   S
    Zr15   O210      2.46768  1_565   S
    C206   O211      0.79579      .   S
    Zr5    O211      2.26082      .   S
    C206   O212      0.39070      .   S
    C54    O212      0.78043      .   S
    C213   O214      0.39070      .   S
    C42    O214      0.78043      .   S
    C213   O215      1.13415      .   S
    Zr14   O215      2.46767  1_565   S
    C213   O216      0.79563      .   S
    Zr4    O216      2.26060      .   S
    C213   O217      1.14727      .   S
    Zr29   O217      2.50963      .   S
    C213   O218      1.19599      .   S
    Zr20   O218      2.57002      .   S
    C213   O219      0.86365      .   S
    Zr4    O219      2.18362      .   S
    C220   O221      1.19054      .   S
    Zr23   O221      2.55145      .   S
    C220   O222      0.85224      .   S
    Zr3    O222      2.18977      .   S
    C220   O223      0.80856      .   S
    Zr3    O223      2.23963      .   S
    C220   O224      1.14496      .   S
    Zr30   O224      2.50248  1_554   S
    C220   O225      1.14385      .   S
    Zr9    O225      2.48619      .   S
    C220   O226      0.39232      .   S
    C55    O226      0.78208      .   S
    C227   O228      0.86368      .   S
    Zr1    O228      2.18400      .   S
    C227   O229      1.19599      .   S
    Zr17   O229      2.57002      .   S
    C227   O230      0.39070      .   S
    C32    O230      0.78043      .   S
    C227   O231      1.13415      .   S
    Zr11   O231      2.46768  1_565   S
    C227   O232      0.79579      .   S
    Zr1    O232      2.26082      .   S
    C227   O233      1.14734      .   S
    Zr24   O233      2.50983  1_554   S
    C234   O235      0.86368      .   S
    Zr3    O235      2.18399      .   S
    C234   O236      1.19599      .   S
    Zr19   O236      2.57002      .   S
    C234   O237      1.13421      .   S
    Zr9    O237      2.46790      .   S
    C234   O238      0.79579      .   S
    Zr3    O238      2.26082      .   S
    C234   O239      1.14734      .   S
    Zr26   O239      2.50982  1_554   S
    C234   O240      0.39070      .   S
    C53    O240      0.78043      .   S
    C241   O242      1.19895      .   S
    Zr2    O242      2.58877      .   S
    C241   O243      0.98833      .   S
    Zr10   O243      2.29510      .   S
    C241   O244      1.18182      .   S
    Zr14   O244      2.60261  1_655   S
    C241   O245      1.09874      .   S
    Zr19   O245      2.46846      .   S
    C241   O246      0.38665      .   S
    C38    O246      0.77363      .   S
    C247   O248      0.38663      .   S
    C36    O248      0.77363      .   S
    C247   O249      1.09872  1_554   S
    Zr7    O249      2.46854      .   S
    C247   O250      1.18181      .   S
    Zr26   O250      2.60262  1_455   S
    C247   O251      1.19883      .   S
    Zr22   O251      2.58837      .   S
    C247   O252      0.98832      .   S
    Zr30   O252      2.29507      .   S
    C253   O254      1.18663      .   S
    Zr7    O254      2.60523      .   S
    C253   O255      1.07112      .   S
    Zr30   O255      2.41803  1_554   S
    C253   O256      0.38797      .   S
    C58    O256      0.77492      .   S
    C253   O257      1.00046      .   S
    Zr3    O257      2.33654      .   S
    C253   O258      1.18831      .   S
    Zr11   O258      2.55283      .   S
    C259   O260      0.39224      .   S
    C45    O260      0.78198      .   S
    C259   O261      1.14409      .   S
    Zr30   O261      2.48555      .   S
    C259   O262      1.14554      .   S
    Zr9    O262      2.49939  1_556   S
    C259   O263      0.80889      .   S
    Zr20   O263      2.23902      .   S
    C259   O264      1.19127      .   S
    Zr0    O264      2.55187      .   S
    C259   O265      0.85225      .   S
    Zr20   O265      2.18923      .   S
    C266   O267      0.38517      .   S
    C59    O267      0.77217      .   S
    C266   O268      1.18149      .   S
    Zr9    O268      2.60306      .   S
    C266   O269      1.09781  1_556   S
    Zr20   O269      2.47365      .   S
    C266   O270      1.19739      .   S
    Zr5    O270      2.58667      .   S
    C266   O271      0.98866      .   S
    Zr13   O271      2.29619      .   S
    C272   O273      0.80856      .   S
    Zr1    O273      2.23962      .   S
    C272   O274      1.14496      .   S
    Zr28   O274      2.50248  1_554   S
    C272   O275      1.14378      .   S
    Zr11   O275      2.48595  1_565   S
    C272   O276      0.39232      .   S
    C54    O276      0.78208      .   S
    C272   O277      1.19054      .   S
    Zr21   O277      2.55145      .   S
    C272   O278      0.85224      .   S
    Zr1    O278      2.18976      .   S
    C279   O280      0.38662      .   S
    C48    O280      0.77362      .   S
    C279   O281      1.09887      .   S
    Zr2    O281      2.46892      .   S
    C279   O282      1.18178      .   S
    Zr31   O282      2.60255      .   S
    C279   O283      1.19883      .   S
    Zr19   O283      2.58836      .   S
    C279   O284      0.98833      .   S
    Zr27   O284      2.29509      .   S
    C285   O286      0.39071      .   S
    C62    O286      0.78043      .   S
    C285   O287      1.13415      .   S
    Zr10   O287      2.46766  1_565   S
    C285   O288      1.14727      .   S
    Zr25   O288      2.50963      .   S
    C285   O289      0.79563      .   S
    Zr0    O289      2.26059      .   S
    C285   O290      0.86365      .   S
    Zr0    O290      2.18361      .   S
    C285   O291      1.19599      .   S
    Zr16   O291      2.57002      .   S
    C292   O293      0.38771      .   S
    C47    O293      0.77443      .   S
    C292   O294      1.18670      .   S
    Zr1    O294      2.60530      .   S
    C292   O295      1.07108      .   S
    Zr24   O295      2.41791  1_554   S
    C292   O296      1.00044      .   S
    Zr5    O296      2.33686  1_655   S
    C292   O297      1.18840      .   S
    Zr13   O297      2.55256  1_655   S
    C298   O299      0.80858  1_455   S
    Zr7    O299      2.23967      .   S
    C298   O300      1.14386  1_455   S
    Zr13   O300      2.48622      .   S
    C298   O301      1.14496      .   S
    Zr26   O301      2.50248  1_554   S
    C298   O302      1.19054      .   S
    Zr19   O302      2.55145      .   S
    C298   O303      0.85225  1_455   S
    Zr7    O303      2.18981      .   S
    C298   O304      0.39232      .   S
    C53    O304      0.78208      .   S
    C305   O306      0.80879      .   S
    Zr0    O306      2.23892      .   S
    C305   O307      1.14550      .   S
    Zr29   O307      2.49926      .   S
    C305   O308      1.14405      .   S
    Zr10   O308      2.48536  1_565   S
    C305   O309      0.39224      .   S
    C42    O309      0.78198      .   S
    C305   O310      0.85226      .   S
    Zr0    O310      2.18901      .   S
    C305   O311      1.19140      .   S
    Zr20   O311      2.55223      .   S
    C312   O313      1.18182      .   S
    Zr12   O313      2.60263  1_655   S
    C312   O314      1.09869      .   S
    Zr17   O314      2.46840      .   S
    C312   O315      1.19896      .   S
    Zr0    O315      2.58876      .   S
    C312   O316      0.98833      .   S
    Zr8    O316      2.29513      .   S
    C312   O317      0.38670      .   S
    C56    O317      0.77386      .   S
    C318   O319      0.38660      .   S
    C44    O319      0.77350      .   S
    C318   O320      1.09865      .   S
    Zr6    O320      2.46827      .   S
    C318   O321      1.18181      .   S
    Zr27   O321      2.60261  1_455   S
    C318   O322      1.19882      .   S
    Zr23   O322      2.58834      .   S
    C318   O323      0.98833      .   S
    Zr31   O323      2.29509      .   S
    C324   O325      0.38783      .   S
    C38    O325      0.77480      .   S
    C324   O326      1.18677      .   S
    Zr2    O326      2.60550      .   S
    C324   O327      1.07100      .   S
    Zr27   O327      2.41767      .   S
    C324   O328      1.00044      .   S
    Zr6    O328      2.33686  1_655   S
    C324   O329      1.18840      .   S
    Zr14   O329      2.55258  1_655   S
    C330   O331      0.38664      .   S
    C57    O331      0.77362      .   S
    C330   O332      1.18181      .   S
    Zr10   O332      2.60257      .   S
    C330   O333      1.09872      .   S
    Zr23   O333      2.46843      .   S
    C330   O334      1.19879      .   S
    Zr6    O334      2.58827      .   S
    C330   O335      0.98834      .   S
    Zr14   O335      2.29513      .   S
    C336   O337      1.19882      .   S
    Zr20   O337      2.58836      .   S
    C336   O338      0.98833      .   S
    Zr28   O338      2.29507      .   S
    C336   O339      1.09875  1_554   S
    Zr5    O339      2.46856      .   S
    C336   O340      1.18181      .   S
    Zr24   O340      2.60260  1_455   S
    C336   O341      0.38663      .   S
    C34    O341      0.77360      .   S
    C342   O343      1.19882      .   S
    Zr21   O343      2.58837      .   S
    C342   O344      0.98832      .   S
    Zr29   O344      2.29507      .   S
    C342   O345      1.09890      .   S
    Zr4    O345      2.46895      .   S
    C342   O346      1.18180      .   S
    Zr25   O346      2.60261  1_455   S
    C342   O347      0.38663      .   S
    C41    O347      0.77361      .   S
    C348   O349      0.39224      .   S
    C52    O349      0.78199      .   S
    C348   O350      0.85227  1_655   S
    Zr19   O350      2.18927      .   S
    C348   O351      1.19144      .   S
    Zr7    O351      2.55232      .   S
    C348   O352      1.14404  1_655   S
    Zr25   O352      2.48536  1_545   S
    C348   O353      1.14545      .   S
    Zr14   O353      2.49912      .   S
    C348   O354      0.80891  1_655   S
    Zr19   O354      2.23906      .   S
    C355   O356      1.13422      .   S
    Zr12   O356      2.46790      .   S
    C355   O357      0.79579      .   S
    Zr6    O357      2.26081      .   S
    C355   O358      1.14727      .   S
    Zr31   O358      2.50963      .   S
    C355   O359      0.39071      .   S
    C35    O359      0.78044      .   S
    C355   O360      0.86368      .   S
    Zr6    O360      2.18399      .   S
    C355   O361      1.19599      .   S
    Zr22   O361      2.57002      .   S
    C362   O363      0.38784      .   S
    C36    O363      0.77483      .   S
    C362   O364      1.00045      .   S
    Zr18   O364      2.33688  1_455   S
    C362   O365      1.18837      .   S
    Zr26   O365      2.55253  1_455   S
    C362   O366      1.07109      .   S
    Zr15   O366      2.41791  1_556   S
    C362   O367      1.18670      .   S
    Zr22   O367      2.60531      .   S
    C368   O369      0.39071      .   S
    C49    O369      0.78044      .   S
    C368   O370      1.14730      .   S
    Zr11   O370      2.50970  1_556   S
    C368   O371      0.79576      .   S
    Zr18   O371      2.26077      .   S
    C368   O372      1.13413      .   S
    Zr24   O372      2.46763  1_545   S
    C368   O373      1.19585      .   S
    Zr2    O373      2.56961      .   S
    C368   O374      0.86367      .   S
    Zr18   O374      2.18392      .   S
    C375   O376      0.39071      .   S
    C60    O376      0.78044      .   S
    C375   O377      1.19585      .   S
    Zr4    O377      2.56962      .   S
    C375   O378      0.86368      .   S
    Zr20   O378      2.18392      .   S
    C375   O379      1.13419      .   S
    Zr30   O379      2.46785      .   S
    C375   O380      1.14730      .   S
    Zr13   O380      2.50970  1_556   S
    C375   O381      0.79576      .   S
    Zr20   O381      2.26078      .   S
    C382   O383      1.18837      .   S
    Zr9    O383      2.55254      .   S
    C382   O384      1.00041      .   S
    Zr1    O384      2.33683      .   S
    C382   O385      0.38784      .   S
    C59    O385      0.77481      .   S
    C382   O386      1.18669      .   S
    Zr5    O386      2.60528      .   S
    C382   O387      1.07108      .   S
    Zr28   O387      2.41792  1_554   S
    C388   O389      0.38785      .   S
    C41    O389      0.77481      .   S
    C388   O390      1.00046      .   S
    Zr17   O390      2.33690  1_455   S
    C388   O391      1.18836      .   S
    Zr25   O391      2.55251  1_455   S
    C388   O392      1.07103      .   S
    Zr12   O392      2.41770      .   S
    C388   O393      1.18671      .   S
    Zr21   O393      2.60533      .   S
    C394   O395      1.18179      .   S
    Zr11   O395      2.60255      .   S
    C394   O396      1.09875  1_556   S
    Zr22   O396      2.46856      .   S
    C394   O397      0.38665      .   S
    C58    O397      0.77361      .   S
    C394   O398      1.19881      .   S
    Zr7    O398      2.58834      .   S
    C394   O399      0.98833      .   S
    Zr15   O399      2.29509      .   S
    C400   O401      0.39070      .   S
    C33    O401      0.78043      .   S
    C400   O402      1.14719      .   S
    Zr8    O402      2.50947      .   S
    C400   O403      0.79574      .   S
    Zr17   O403      2.26076      .   S
    C400   O404      1.13418      .   S
    Zr27   O404      2.46786      .   S
    C400   O405      1.19605      .   S
    Zr1    O405      2.57014      .   S
    C400   O406      0.86367      .   S
    Zr17   O406      2.18390      .   S
    C407   O408      0.38785      .   S
    C34    O408      0.77480      .   S
    C407   O409      1.00047      .   S
    Zr16   O409      2.33690  1_455   S
    C407   O410      1.18836      .   S
    Zr24   O410      2.55250  1_455   S
    C407   O411      1.07108      .   S
    Zr13   O411      2.41789  1_556   S
    C407   O412      1.18671      .   S
    Zr20   O412      2.60533      .   S
    C413   O414      0.38812      .   S
    C61    O414      0.77566      .   S
    C413   O415      1.00044      .   S
    Zr22   O415      2.33693      .   S
    C413   O416      1.18836      .   S
    Zr30   O416      2.55247      .   S
    C413   O417      1.18671      .   S
    Zr18   O417      2.60533      .   S
    C413   O418      1.07105      .   S
    Zr11   O418      2.41783  1_556   S
    C419   O420      1.19054      .   S
    Zr17   O420      2.55146      .   S
    C419   O421      0.85225  1_455   S
    Zr5    O421      2.18981      .   S
    C419   O422      0.39232      .   S
    C32    O422      0.78208      .   S
    C419   O423      0.80858  1_455   S
    Zr5    O423      2.23967      .   S
    C419   O424      1.14496      .   S
    Zr24   O424      2.50248  1_554   S
    C419   O425      1.14380  1_455   S
    Zr15   O425      2.48599  1_565   S
    C426   O427      0.39070      .   S
    C52    O427      0.78044      .   S
    C426   O428      1.13411      .   S
    Zr29   O428      2.46762  1_545   S
    C426   O429      1.14719      .   S
    Zr14   O429      2.50947      .   S
    C426   O430      0.79574      .   S
    Zr23   O430      2.26077      .   S
    C426   O431      1.19605      .   S
    Zr7    O431      2.57014      .   S
    C426   O432      0.86367      .   S
    Zr23   O432      2.18391      .   S
    C433   O434      0.39070      .   S
    C50    O434      0.78043      .   S
    C433   O435      1.19605      .   S
    Zr3    O435      2.57014      .   S
    C433   O436      0.86368      .   S
    Zr19   O436      2.18392      .   S
    C433   O437      1.14719      .   S
    Zr10   O437      2.50947      .   S
    C433   O438      0.79574      .   S
    Zr19   O438      2.26078      .   S
    C433   O439      1.13411      .   S
    Zr25   O439      2.46762  1_545   S
    C440   O441      1.09819  1_554   S
    Zr3    O441      2.46802      .   S
    C440   O442      1.18160      .   S
    Zr30   O442      2.60249      .   S
    C440   O443      1.19923      .   S
    Zr18   O443      2.58881      .   S
    C440   O444      0.98823      .   S
    Zr26   O444      2.29476      .   S
    C440   O445      0.38614      .   S
    C61    O445      0.77371      .   S
    C446   O447      0.39224      .   S
    C39    O447      0.78198      .   S
    C446   O448      0.85227  1_655   S
    Zr18   O448      2.18927      .   S
    C446   O449      1.19144      .   S
    Zr6    O449      2.55233      .   S
    C446   O450      1.14554      .   S
    Zr15   O450      2.49939  1_556   S
    C446   O451      0.80891  1_655   S
    Zr18   O451      2.23906      .   S
    C446   O452      1.14404  1_655   S
    Zr24   O452      2.48536  1_545   S
    C453   O454      0.85227  1_655   S
    Zr17   O454      2.18928      .   S
    C453   O455      1.19144      .   S
    Zr5    O455      2.55232      .   S
    C453   O456      0.39224      .   S
    C51    O456      0.78198      .   S
    C453   O457      1.14545      .   S
    Zr12   O457      2.49912      .   S
    C453   O458      0.80891  1_655   S
    Zr17   O458      2.23907      .   S
    C453   O459      1.14410  1_655   S
    Zr27   O459      2.48560      .   S
    C460   O461      0.39071      .   S
    C45    O461      0.78043      .   S
    C460   O462      1.19585      .   S
    Zr0    O462      2.56961      .   S
    C460   O463      0.86367      .   S
    Zr16   O463      2.18392      .   S
    C460   O464      1.13419      .   S
    Zr26   O464      2.46785      .   S
    C460   O465      1.14730      .   S
    Zr9    O465      2.50969  1_556   S
    C460   O466      0.79576      .   S
    Zr16   O466      2.26077      .   S
    C467   O468      0.85227  1_655   S
    Zr16   O468      2.18927      .   S
    C467   O469      1.19127      .   S
    Zr4    O469      2.55186      .   S
    C467   O470      0.39223      .   S
    C60    O470      0.78198      .   S
    C467   O471      1.14410  1_655   S
    Zr26   O471      2.48559      .   S
    C467   O472      1.14554      .   S
    Zr13   O472      2.49939  1_556   S
    C467   O473      0.80891  1_655   S
    Zr16   O473      2.23906      .   S
    C474   O475      0.38672      .   S
    C46    O475      0.77383      .   S
    C474   O476      1.19881      .   S
    Zr3    O476      2.58834      .   S
    C474   O477      0.98833      .   S
    Zr11   O477      2.29510      .   S
    C474   O478      1.18181      .   S
    Zr15   O478      2.60261  1_655   S
    C474   O479      1.09876  1_556   S
    Zr18   O479      2.46856      .   S
