# CIF file generated by openbabel 2.4.90, see http://openbabel.sf.net
data_I
_chemical_name_common ''
_cell_length_a 12.599
_cell_length_b 17.292
_cell_length_c 19.294
_cell_angle_alpha 65.181
_cell_angle_beta 84.55
_cell_angle_gamma 83.659
_space_group_name_H-M_alt 'P 1'
_space_group_name_Hall 'P 1'
loop_
    _symmetry_equiv_pos_as_xyz
    x,y,z
loop_
    _atom_site_label
    _atom_site_type_symbol
    _atom_site_fract_x
    _atom_site_fract_y
    _atom_site_fract_z
    _atom_site_occupancy
    Zr0     Zr   0.35994   0.23529   0.35010   1.000
    Zr1     Zr   0.35994   0.23530   0.85014   1.000
    Zr2     Zr   0.35994   0.73531   0.35010   1.000
    Zr3     Zr   0.35994   0.73531   0.85014   1.000
    Zr4     Zr   0.85994   0.23529   0.35010   1.000
    Zr5     Zr   0.85993   0.23530   0.85014   1.000
    Zr6     Zr   0.85993   0.73531   0.35015   1.000
    Zr7     Zr   0.85993   0.73531   0.85014   1.000
    Zr8     Zr   0.39296   0.43134   0.46672   1.000
    Zr9     Zr   0.39296   0.43134   0.96671   1.000
    Zr10    Zr   0.39296   0.93135   0.46672   1.000
    Zr11    Zr   0.39296   0.93136   0.96671   1.000
    Zr12    Zr   0.89296   0.43134   0.46672   1.000
    Zr13    Zr   0.89296   0.43134   0.96671   1.000
    Zr14    Zr   0.89296   0.93135   0.46672   1.000
    Zr15    Zr   0.89295   0.93136   0.96671   1.000
    Zr16    Zr   0.14005   0.26473   0.14984   1.000
    Zr17    Zr   0.14005   0.26473   0.64983   1.000
    Zr18    Zr   0.14005   0.76474   0.14984   1.000
    Zr19    Zr   0.14004   0.76475   0.64983   1.000
    Zr20    Zr   0.64005   0.26473   0.14984   1.000
    Zr21    Zr   0.64004   0.26473   0.64983   1.000
    Zr22    Zr   0.64004   0.76474   0.14984   1.000
    Zr23    Zr   0.64004   0.76475   0.64983   1.000
    Zr24    Zr   0.10703   0.06868   0.03327   1.000
    Zr25    Zr   0.10703   0.06869   0.53326   1.000
    Zr26    Zr   0.10703   0.56869   0.03327   1.000
    Zr27    Zr   0.10702   0.56870   0.53326   1.000
    Zr28    Zr   0.60703   0.06868   0.03327   1.000
    Zr29    Zr   0.60702   0.06869   0.53326   1.000
    Zr30    Zr   0.60702   0.56869   0.03327   1.000
    Zr31    Zr   0.60702   0.56870   0.53326   1.000
    Zr32    Zr   0.09118   0.29414   0.41330   1.000
    Zr33    Zr   0.09118   0.29414   0.91335   1.000
    Zr34    Zr   0.09118   0.79414   0.41337   1.000
    Zr35    Zr   0.09118   0.79416   0.91330   1.000
    Zr36    Zr   0.59118   0.29413   0.41336   1.000
    Zr37    Zr   0.59117   0.29414   0.91335   1.000
    Zr38    Zr   0.59118   0.79415   0.41336   1.000
    Zr39    Zr   0.59117   0.79416   0.91335   1.000
    Zr40    Zr   0.16276   0.34186   0.44080   1.000
    Zr41    Zr   0.16276   0.34187   0.94070   1.000
    Zr42    Zr   0.16276   0.84189   0.44078   1.000
    Zr43    Zr   0.16276   0.84187   0.94079   1.000
    Zr44    Zr   0.66276   0.34187   0.44079   1.000
    Zr45    Zr   0.66276   0.34187   0.94079   1.000
    Zr46    Zr   0.66276   0.84188   0.44079   1.000
    Zr47    Zr   0.66275   0.84188   0.94079   1.000
    Zr48    Zr   0.07065   0.10927   0.34103   1.000
    Zr49    Zr   0.07065   0.10927   0.84103   1.000
    Zr50    Zr   0.07065   0.60928   0.34103   1.000
    Zr51    Zr   0.07064   0.60928   0.84103   1.000
    Zr52    Zr   0.57065   0.10927   0.34103   1.000
    Zr53    Zr   0.57064   0.10927   0.84103   1.000
    Zr54    Zr   0.57064   0.60928   0.34103   1.000
    Zr55    Zr   0.57064   0.60928   0.84103   1.000
    Zr56    Zr   0.19465   0.10631   0.34236   1.000
    Zr57    Zr   0.19464   0.10631   0.84235   1.000
    Zr58    Zr   0.19464   0.60632   0.34236   1.000
    Zr59    Zr   0.19464   0.60633   0.84235   1.000
    Zr60    Zr   0.69464   0.10631   0.34236   1.000
    Zr61    Zr   0.69464   0.10631   0.84235   1.000
    Zr62    Zr   0.69464   0.60632   0.34236   1.000
    Zr63    Zr   0.69464   0.60633   0.84235   1.000
    Zr64    Zr   0.40881   0.20588   0.08663   1.000
    Zr65    Zr   0.40881   0.20588   0.58660   1.000
    Zr66    Zr   0.40881   0.70591   0.08661   1.000
    Zr67    Zr   0.40880   0.70590   0.58662   1.000
    Zr68    Zr   0.90881   0.20589   0.08662   1.000
    Zr69    Zr   0.90880   0.20589   0.58661   1.000
    Zr70    Zr   0.90880   0.70590   0.08663   1.000
    Zr71    Zr   0.90880   0.70590   0.58660   1.000
    Zr72    Zr   0.33723   0.15816   0.05910   1.000
    Zr73    Zr   0.33722   0.15817   0.55917   1.000
    Zr74    Zr   0.33723   0.65816   0.05900   1.000
    Zr75    Zr   0.33722   0.65818   0.55917   1.000
    Zr76    Zr   0.83722   0.15816   0.05919   1.000
    Zr77    Zr   0.83722   0.15816   0.55918   1.000
    Zr78    Zr   0.83722   0.65818   0.05918   1.000
    Zr79    Zr   0.83722   0.65819   0.55917   1.000
    Zr80    Zr   0.42934   0.39075   0.15895   1.000
    Zr81    Zr   0.42934   0.39076   0.65894   1.000
    Zr82    Zr   0.42934   0.89077   0.15895   1.000
    Zr83    Zr   0.42933   0.89077   0.65894   1.000
    Zr84    Zr   0.92934   0.39075   0.15895   1.000
    Zr85    Zr   0.92933   0.39076   0.65894   1.000
    Zr86    Zr   0.92933   0.89077   0.15895   1.000
    Zr87    Zr   0.92933   0.89077   0.65894   1.000
    Zr88    Zr   0.30534   0.39371   0.15762   1.000
    Zr89    Zr   0.30534   0.39372   0.65760   1.000
    Zr90    Zr   0.30534   0.89373   0.15762   1.000
    Zr91    Zr   0.30534   0.89373   0.65760   1.000
    Zr92    Zr   0.80534   0.39371   0.15762   1.000
    Zr93    Zr   0.80534   0.39372   0.65760   1.000
    Zr94    Zr   0.80534   0.89373   0.15762   1.000
    Zr95    Zr   0.80533   0.89373   0.65760   1.000
    Zr96    Zr   0.49373   0.32138   0.40368   1.000
    Zr97    Zr   0.49373   0.32139   0.90367   1.000
    Zr98    Zr   0.49373   0.82140   0.40368   1.000
    Zr99    Zr   0.49373   0.82140   0.90360   1.000
    Zr100   Zr   0.99373   0.32138   0.40367   1.000
    Zr101   Zr   0.99372   0.32139   0.90367   1.000
    Zr102   Zr   0.99373   0.82140   0.40368   1.000
    Zr103   Zr   0.99372   0.82140   0.90360   1.000
    Zr104   Zr   0.13482   0.22823   0.40526   1.000
    Zr105   Zr   0.13481   0.22823   0.90525   1.000
    Zr106   Zr   0.13481   0.72824   0.40526   1.000
    Zr107   Zr   0.13481   0.72825   0.90525   1.000
    Zr108   Zr   0.63481   0.22822   0.40526   1.000
    Zr109   Zr   0.63481   0.22823   0.90525   1.000
    Zr110   Zr   0.63481   0.72824   0.40526   1.000
    Zr111   Zr   0.63481   0.72825   0.90525   1.000
    Zr112   Zr   0.11970   0.37023   0.48870   1.000
    Zr113   Zr   0.11969   0.37024   0.98869   1.000
    Zr114   Zr   0.11969   0.87025   0.48870   1.000
    Zr115   Zr   0.11969   0.87025   0.98870   1.000
    Zr116   Zr   0.61969   0.37023   0.48870   1.000
    Zr117   Zr   0.61969   0.37024   0.98800   1.000
    Zr118   Zr   0.61969   0.87025   0.48870   1.000
    Zr119   Zr   0.61969   0.87025   0.98870   1.000
    Zr120   Zr   0.25974   0.34690   0.41563   1.000
    Zr121   Zr   0.25973   0.34690   0.91560   1.000
    Zr122   Zr   0.25974   0.84691   0.41563   1.000
    Zr123   Zr   0.25973   0.84691   0.91563   1.000
    Zr124   Zr   0.75974   0.34690   0.41563   1.000
    Zr125   Zr   0.75973   0.34690   0.91560   1.000
    Zr126   Zr   0.75973   0.84691   0.41563   1.000
    Zr127   Zr   0.75973   0.84692   0.91563   1.000
    Zr128   Zr   0.01841   0.06997   0.40440   1.000
    Zr129   Zr   0.01841   0.06997   0.90400   1.000
    Zr130   Zr   0.01841   0.56998   0.40440   1.000
    Zr131   Zr   0.01840   0.56999   0.90400   1.000
    Zr132   Zr   0.51841   0.06997   0.40440   1.000
    Zr133   Zr   0.51840   0.06997   0.90400   1.000
    Zr134   Zr   0.51841   0.56998   0.40440   1.000
    Zr135   Zr   0.51840   0.56999   0.90400   1.000
    Zr136   Zr   0.02812   0.15528   0.27887   1.000
    Zr137   Zr   0.02811   0.15528   0.77886   1.000
    Zr138   Zr   0.02811   0.65529   0.27887   1.000
    Zr139   Zr   0.02811   0.65530   0.77886   1.000
    Zr140   Zr   0.52811   0.15528   0.27887   1.000
    Zr141   Zr   0.52811   0.15528   0.77886   1.000
    Zr142   Zr   0.52811   0.65529   0.27887   1.000
    Zr143   Zr   0.52811   0.65530   0.77886   1.000
    Zr144   Zr   0.23688   0.06438   0.40667   1.000
    Zr145   Zr   0.23688   0.06439   0.90666   1.000
    Zr146   Zr   0.23688   0.56439   0.40667   1.000
    Zr147   Zr   0.23688   0.56440   0.90666   1.000
    Zr148   Zr   0.73688   0.06438   0.40667   1.000
    Zr149   Zr   0.73687   0.06439   0.90666   1.000
    Zr150   Zr   0.73688   0.56439   0.40667   1.000
    Zr151   Zr   0.73687   0.56440   0.90666   1.000
    Zr152   Zr   0.24472   0.15090   0.28106   1.000
    Zr153   Zr   0.24472   0.15091   0.78105   1.000
    Zr154   Zr   0.24472   0.65092   0.28106   1.000
    Zr155   Zr   0.24471   0.65092   0.78105   1.000
    Zr156   Zr   0.74472   0.15090   0.28106   1.000
    Zr157   Zr   0.74471   0.15091   0.78105   1.000
    Zr158   Zr   0.74471   0.65092   0.28106   1.000
    Zr159   Zr   0.74471   0.65092   0.78105   1.000
    Zr160   Zr   0.00626   0.17863   0.09631   1.000
    Zr161   Zr   0.00626   0.17864   0.59630   1.000
    Zr162   Zr   0.00626   0.67865   0.09631   1.000
    Zr163   Zr   0.00625   0.67865   0.59630   1.000
    Zr164   Zr   0.50626   0.17863   0.09631   1.000
    Zr165   Zr   0.50625   0.17864   0.59630   1.000
    Zr166   Zr   0.50625   0.67865   0.09630   1.000
    Zr167   Zr   0.50625   0.67865   0.59630   1.000
    Zr168   Zr   0.36517   0.27179   0.09472   1.000
    Zr169   Zr   0.36517   0.27179   0.59470   1.000
    Zr170   Zr   0.36517   0.77181   0.09472   1.000
    Zr171   Zr   0.36517   0.77181   0.59472   1.000
    Zr172   Zr   0.86517   0.27179   0.09472   1.000
    Zr173   Zr   0.86517   0.27180   0.59471   1.000
    Zr174   Zr   0.86517   0.77181   0.09472   1.000
    Zr175   Zr   0.86517   0.77181   0.59472   1.000
    Zr176   Zr   0.38029   0.12979   0.01128   1.000
    Zr177   Zr   0.38029   0.12979   0.51127   1.000
    Zr178   Zr   0.38029   0.62980   0.01128   1.000
    Zr179   Zr   0.38029   0.62981   0.51127   1.000
    Zr180   Zr   0.88029   0.12979   0.01128   1.000
    Zr181   Zr   0.88029   0.12979   0.51127   1.000
    Zr182   Zr   0.88029   0.62980   0.01128   1.000
    Zr183   Zr   0.88028   0.62981   0.51127   1.000
    Zr184   Zr   0.24025   0.15312   0.08435   1.000
    Zr185   Zr   0.24025   0.15313   0.58434   1.000
    Zr186   Zr   0.24025   0.65313   0.08435   1.000
    Zr187   Zr   0.24025   0.65314   0.58434   1.000
    Zr188   Zr   0.74025   0.15312   0.08435   1.000
    Zr189   Zr   0.74025   0.15313   0.58434   1.000
    Zr190   Zr   0.74025   0.65314   0.08435   1.000
    Zr191   Zr   0.74025   0.65314   0.58434   1.000
    Zr192   Zr   0.48158   0.43005   0.09558   1.000
    Zr193   Zr   0.48158   0.43006   0.59557   1.000
    Zr194   Zr   0.48158   0.93007   0.09558   1.000
    Zr195   Zr   0.48157   0.93007   0.59557   1.000
    Zr196   Zr   0.98158   0.43005   0.09558   1.000
    Zr197   Zr   0.98157   0.43006   0.59557   1.000
    Zr198   Zr   0.98157   0.93007   0.09558   1.000
    Zr199   Zr   0.98157   0.93007   0.59557   1.000
    Zr200   Zr   0.47187   0.34474   0.22111   1.000
    Zr201   Zr   0.47187   0.34475   0.72110   1.000
    Zr202   Zr   0.47187   0.84475   0.22111   1.000
    Zr203   Zr   0.47187   0.84476   0.72110   1.000
    Zr204   Zr   0.97187   0.34474   0.22111   1.000
    Zr205   Zr   0.97187   0.34475   0.72110   1.000
    Zr206   Zr   0.97187   0.84475   0.22111   1.000
    Zr207   Zr   0.97187   0.84476   0.72110   1.000
    Zr208   Zr   0.26311   0.43564   0.09331   1.000
    Zr209   Zr   0.26311   0.43564   0.59330   1.000
    Zr210   Zr   0.26311   0.93565   0.09331   1.000
    Zr211   Zr   0.26310   0.93566   0.59330   1.000
    Zr212   Zr   0.76311   0.43564   0.09331   1.000
    Zr213   Zr   0.76310   0.43564   0.59330   1.000
    Zr214   Zr   0.76310   0.93565   0.09331   1.000
    Zr215   Zr   0.76310   0.93566   0.59330   1.000
    Zr216   Zr   0.25527   0.34912   0.21892   1.000
    Zr217   Zr   0.25527   0.34912   0.71891   1.000
    Zr218   Zr   0.25527   0.84913   0.21892   1.000
    Zr219   Zr   0.25526   0.84914   0.71891   1.000
    Zr220   Zr   0.75527   0.34912   0.21892   1.000
    Zr221   Zr   0.75526   0.34912   0.71891   1.000
    Zr222   Zr   0.75526   0.84913   0.21892   1.000
    Zr223   Zr   0.75526   0.84914   0.71891   1.000
    O224    O    0.85876   0.64399   0.03523   1.000
    O225    O    0.85876   0.14397   0.03523   1.000
    O226    O    0.35876   0.64398   0.03514   1.000
    O227    O    0.35876   0.14397   0.03519   1.000
    O228    O    0.68506   0.50217   0.06329   1.000
    O229    O    0.54430   0.49937   0.06442   1.000
    O230    O    0.68506   0.00217   0.06329   1.000
    O231    O    0.54430   0.99937   0.06442   1.000
    O232    O    0.18507   0.50217   0.06329   1.000
    O233    O    0.04430   0.49937   0.06442   1.000
    O234    O    0.18507   0.00217   0.06329   1.000
    O235    O    0.04430   0.99937   0.06442   1.000
    O236    O    0.28874   0.65565   0.07167   1.000
    O237    O    0.37302   0.68204   0.07280   1.000
    O238    O    0.28874   0.15564   0.07172   1.000
    O239    O    0.37302   0.18202   0.07286   1.000
    O240    O    0.78873   0.65566   0.07176   1.000
    O241    O    0.87301   0.68204   0.07290   1.000
    O242    O    0.78874   0.15564   0.07177   1.000
    O243    O    0.87302   0.18202   0.07290   1.000
    O244    O    0.38699   0.73886   0.09067   1.000
    O245    O    0.45753   0.69228   0.09145   1.000
    O246    O    0.88699   0.23884   0.09067   1.000
    O247    O    0.95753   0.19226   0.09146   1.000
    O248    O    0.38699   0.23884   0.09067   1.000
    O249    O    0.45753   0.19226   0.09147   1.000
    O250    O    0.88699   0.73885   0.09067   1.000
    O251    O    0.95753   0.69227   0.09147   1.000
    O252    O    0.28422   0.91469   0.12546   1.000
    O253    O    0.78422   0.41468   0.12546   1.000
    O254    O    0.78422   0.91469   0.12546   1.000
    O255    O    0.28423   0.41468   0.12546   1.000
    O256    O    0.45546   0.91042   0.12726   1.000
    O257    O    0.95546   0.41040   0.12726   1.000
    O258    O    0.95545   0.91042   0.12726   1.000
    O259    O    0.45546   0.41040   0.12726   1.000
    O260    O    0.08408   0.71002   0.21435   1.000
    O261    O    0.19238   0.70783   0.21545   1.000
    O262    O    0.08408   0.21000   0.21435   1.000
    O263    O    0.19239   0.20781   0.21545   1.000
    O264    O    0.58408   0.21000   0.21435   1.000
    O265    O    0.69238   0.20781   0.21545   1.000
    O266    O    0.58408   0.71002   0.21435   1.000
    O267    O    0.69238   0.70783   0.21545   1.000
    O268    O    0.36734   0.39223   0.15829   1.000
    O269    O    0.28031   0.37142   0.18827   1.000
    O270    O    0.36734   0.89225   0.15829   1.000
    O271    O    0.28030   0.87143   0.18827   1.000
    O272    O    0.86734   0.89225   0.15829   1.000
    O273    O    0.78030   0.87143   0.18827   1.000
    O274    O    0.86734   0.39223   0.15829   1.000
    O275    O    0.78030   0.37142   0.18827   1.000
    O276    O    0.95060   0.36775   0.19003   1.000
    O277    O    0.45061   0.36775   0.19003   1.000
    O278    O    0.45060   0.86776   0.19003   1.000
    O279    O    0.95060   0.86776   0.19003   1.000
    O280    O    0.80760   0.79222   0.28453   1.000
    O281    O    0.30760   0.29220   0.28451   1.000
    O282    O    0.80760   0.29220   0.28451   1.000
    O283    O    0.30760   0.79222   0.28451   1.000
    O284    O    0.91590   0.79003   0.28563   1.000
    O285    O    0.91590   0.29002   0.28560   1.000
    O286    O    0.41591   0.79003   0.28560   1.000
    O287    O    0.41591   0.29002   0.28560   1.000
    O288    O    0.54938   0.63229   0.30995   1.000
    O289    O    0.54938   0.13227   0.30995   1.000
    O290    O    0.04938   0.63229   0.30995   1.000
    O291    O    0.04938   0.13227   0.30995   1.000
    O292    O    0.21968   0.12860   0.31171   1.000
    O293    O    0.21968   0.62862   0.31171   1.000
    O294    O    0.71968   0.62862   0.31171   1.000
    O295    O    0.71968   0.12860   0.31171   1.000
    O296    O    0.13265   0.10779   0.34169   1.000
    O297    O    0.04453   0.08962   0.37271   1.000
    O298    O    0.63264   0.60780   0.34169   1.000
    O299    O    0.54453   0.58963   0.37271   1.000
    O300    O    0.63265   0.10779   0.34169   1.000
    O301    O    0.54453   0.08962   0.37271   1.000
    O302    O    0.13265   0.60780   0.34169   1.000
    O303    O    0.04453   0.58963   0.37271   1.000
    O304    O    0.71576   0.58536   0.37451   1.000
    O305    O    0.71576   0.08534   0.37451   1.000
    O306    O    0.21576   0.58536   0.37451   1.000
    O307    O    0.21576   0.08534   0.37451   1.000
    O308    O    0.04245   0.30776   0.40848   1.000
    O309    O    0.54246   0.30776   0.40852   1.000
    O310    O    0.54245   0.80777   0.40852   1.000
    O311    O    0.04245   0.80777   0.40852   1.000
    O312    O    0.95568   0.00066   0.43556   1.000
    O313    O    0.45568   0.50066   0.43556   1.000
    O314    O    0.45568   0.00066   0.43556   1.000
    O315    O    0.95568   0.50066   0.43556   1.000
    O316    O    0.11300   0.26118   0.40928   1.000
    O317    O    0.11300   0.76119   0.40931   1.000
    O318    O    0.61300   0.26118   0.40931   1.000
    O319    O    0.61299   0.76119   0.40931   1.000
    O320    O    0.81492   0.49787   0.43669   1.000
    O321    O    0.81492   0.99787   0.43669   1.000
    O322    O    0.31492   0.49787   0.43669   1.000
    O323    O    0.31492   0.99787   0.43669   1.000
    O324    O    0.12697   0.31800   0.42705   1.000
    O325    O    0.62697   0.81801   0.42707   1.000
    O326    O    0.62697   0.31800   0.42707   1.000
    O327    O    0.12697   0.81801   0.42707   1.000
    O328    O    0.71125   0.34438   0.42821   1.000
    O329    O    0.21125   0.34438   0.42821   1.000
    O330    O    0.21125   0.84440   0.42820   1.000
    O331    O    0.71125   0.84440   0.42821   1.000
    O332    O    0.14123   0.85607   0.46474   1.000
    O333    O    0.64123   0.35605   0.46474   1.000
    O334    O    0.64122   0.85606   0.46474   1.000
    O335    O    0.14123   0.35605   0.46475   1.000
    O336    O    0.85875   0.64400   0.53522   1.000
    O337    O    0.35876   0.64400   0.53522   1.000
    O338    O    0.35876   0.14398   0.53522   1.000
    O339    O    0.85875   0.14398   0.53522   1.000
    O340    O    0.68506   0.50217   0.56328   1.000
    O341    O    0.54430   0.49938   0.56442   1.000
    O342    O    0.68506   0.00217   0.56328   1.000
    O343    O    0.54430   0.99938   0.56442   1.000
    O344    O    0.18506   0.50217   0.56328   1.000
    O345    O    0.04430   0.49938   0.56442   1.000
    O346    O    0.18506   0.00217   0.56328   1.000
    O347    O    0.04430   0.99938   0.56442   1.000
    O348    O    0.78873   0.65567   0.57175   1.000
    O349    O    0.87301   0.68204   0.57288   1.000
    O350    O    0.28874   0.65566   0.57175   1.000
    O351    O    0.37301   0.68204   0.57289   1.000
    O352    O    0.28874   0.15565   0.57175   1.000
    O353    O    0.37301   0.18203   0.57288   1.000
    O354    O    0.78873   0.15564   0.57176   1.000
    O355    O    0.87301   0.18203   0.57289   1.000
    O356    O    0.88698   0.73885   0.59066   1.000
    O357    O    0.95753   0.69227   0.59145   1.000
    O358    O    0.38699   0.23884   0.59065   1.000
    O359    O    0.45753   0.19226   0.59145   1.000
    O360    O    0.88699   0.23885   0.59066   1.000
    O361    O    0.95753   0.19227   0.59145   1.000
    O362    O    0.38699   0.73886   0.59067   1.000
    O363    O    0.45753   0.69228   0.59146   1.000
    O364    O    0.78422   0.41468   0.62545   1.000
    O365    O    0.28422   0.41468   0.62545   1.000
    O366    O    0.28422   0.91470   0.62545   1.000
    O367    O    0.78422   0.91470   0.62545   1.000
    O368    O    0.45545   0.91042   0.62725   1.000
    O369    O    0.45546   0.41041   0.62725   1.000
    O370    O    0.95545   0.41041   0.62725   1.000
    O371    O    0.95545   0.91042   0.62725   1.000
    O372    O    0.08408   0.21001   0.71435   1.000
    O373    O    0.19238   0.20782   0.71544   1.000
    O374    O    0.08408   0.71002   0.71435   1.000
    O375    O    0.19238   0.70783   0.71544   1.000
    O376    O    0.58408   0.21001   0.71435   1.000
    O377    O    0.69238   0.20782   0.71544   1.000
    O378    O    0.58407   0.71002   0.71435   1.000
    O379    O    0.69238   0.70783   0.71544   1.000
    O380    O    0.36734   0.39224   0.65827   1.000
    O381    O    0.28030   0.37142   0.68825   1.000
    O382    O    0.36734   0.89225   0.65827   1.000
    O383    O    0.28030   0.87144   0.68825   1.000
    O384    O    0.86733   0.39224   0.65827   1.000
    O385    O    0.78030   0.37142   0.68825   1.000
    O386    O    0.86733   0.89225   0.65827   1.000
    O387    O    0.78030   0.87144   0.68825   1.000
    O388    O    0.95060   0.36775   0.69002   1.000
    O389    O    0.95060   0.86777   0.69002   1.000
    O390    O    0.45060   0.86777   0.69002   1.000
    O391    O    0.45060   0.36775   0.69002   1.000
    O392    O    0.30760   0.29221   0.78452   1.000
    O393    O    0.30760   0.79222   0.78452   1.000
    O394    O    0.80760   0.29221   0.78452   1.000
    O395    O    0.80760   0.79222   0.78452   1.000
    O396    O    0.41590   0.29002   0.78562   1.000
    O397    O    0.41590   0.79004   0.78562   1.000
    O398    O    0.91590   0.29002   0.78562   1.000
    O399    O    0.91590   0.79004   0.78562   1.000
    O400    O    0.04938   0.13228   0.80994   1.000
    O401    O    0.04938   0.63229   0.80994   1.000
    O402    O    0.54938   0.13228   0.80994   1.000
    O403    O    0.54937   0.63229   0.80994   1.000
    O404    O    0.71968   0.12861   0.81170   1.000
    O405    O    0.71967   0.62862   0.81170   1.000
    O406    O    0.21968   0.12861   0.81170   1.000
    O407    O    0.21968   0.62862   0.81170   1.000
    O408    O    0.13265   0.10779   0.84169   1.000
    O409    O    0.04453   0.08962   0.87251   1.000
    O410    O    0.13264   0.60781   0.84169   1.000
    O411    O    0.04453   0.58964   0.87251   1.000
    O412    O    0.63264   0.10779   0.84169   1.000
    O413    O    0.54452   0.08962   0.87251   1.000
    O414    O    0.63264   0.60781   0.84169   1.000
    O415    O    0.54452   0.58964   0.87251   1.000
    O416    O    0.21576   0.08535   0.87450   1.000
    O417    O    0.21576   0.58536   0.87450   1.000
    O418    O    0.71576   0.08535   0.87450   1.000
    O419    O    0.71575   0.58536   0.87450   1.000
    O420    O    0.04245   0.80778   0.90845   1.000
    O421    O    0.54245   0.80778   0.90847   1.000
    O422    O    0.04245   0.30776   0.90851   1.000
    O423    O    0.54245   0.30776   0.90851   1.000
    O424    O    0.45568   0.50067   0.93535   1.000
    O425    O    0.45568   0.00067   0.93535   1.000
    O426    O    0.95568   0.50067   0.93535   1.000
    O427    O    0.95568   0.00067   0.93535   1.000
    O428    O    0.61299   0.26119   0.90930   1.000
    O429    O    0.61299   0.76120   0.90930   1.000
    O430    O    0.11299   0.76120   0.90927   1.000
    O431    O    0.11300   0.26118   0.90930   1.000
    O432    O    0.81491   0.49787   0.93668   1.000
    O433    O    0.31492   0.99787   0.93668   1.000
    O434    O    0.31492   0.49787   0.93668   1.000
    O435    O    0.81491   0.99787   0.93668   1.000
    O436    O    0.12697   0.81802   0.92704   1.000
    O437    O    0.12697   0.31800   0.92702   1.000
    O438    O    0.62696   0.81802   0.92707   1.000
    O439    O    0.62696   0.31800   0.92707   1.000
    O440    O    0.71124   0.34438   0.92819   1.000
    O441    O    0.21125   0.34438   0.92815   1.000
    O442    O    0.71124   0.84440   0.92821   1.000
    O443    O    0.21124   0.84439   0.92821   1.000
    O444    O    0.14123   0.35605   0.96469   1.000
    O445    O    0.14122   0.85606   0.96474   1.000
    O446    O    0.64122   0.35605   0.96439   1.000
    O447    O    0.64122   0.85606   0.96474   1.000
    O448    O    0.42684   0.27834   0.37689   1.000
    O449    O    0.44335   0.37636   0.43520   1.000
    O450    O    0.42683   0.27834   0.87690   1.000
    O451    O    0.44334   0.37637   0.93519   1.000
    O452    O    0.42683   0.77835   0.37689   1.000
    O453    O    0.44334   0.87638   0.43520   1.000
    O454    O    0.42683   0.77836   0.87687   1.000
    O455    O    0.44334   0.87638   0.93515   1.000
    O456    O    0.92683   0.27834   0.37688   1.000
    O457    O    0.94334   0.37636   0.43519   1.000
    O458    O    0.92683   0.27834   0.87690   1.000
    O459    O    0.94334   0.37637   0.93519   1.000
    O460    O    0.92683   0.77835   0.37692   1.000
    O461    O    0.94334   0.87638   0.43520   1.000
    O462    O    0.92683   0.77836   0.87687   1.000
    O463    O    0.94334   0.87638   0.93515   1.000
    O464    O    0.24738   0.23176   0.37768   1.000
    O465    O    0.12092   0.14846   0.46926   1.000
    O466    O    0.24738   0.23176   0.87769   1.000
    O467    O    0.12092   0.14846   0.96926   1.000
    O468    O    0.24738   0.73177   0.37768   1.000
    O469    O    0.12092   0.64847   0.46926   1.000
    O470    O    0.24737   0.73178   0.87769   1.000
    O471    O    0.12092   0.64847   0.96926   1.000
    O472    O    0.74738   0.23176   0.37768   1.000
    O473    O    0.62092   0.14846   0.46926   1.000
    O474    O    0.74737   0.23176   0.87769   1.000
    O475    O    0.62092   0.14846   0.96926   1.000
    O476    O    0.74737   0.73177   0.37770   1.000
    O477    O    0.62091   0.64847   0.46926   1.000
    O478    O    0.74737   0.73178   0.87769   1.000
    O479    O    0.62091   0.64847   0.96926   1.000
    O480    O    0.00633   0.40079   0.47771   1.000
    O481    O    0.12987   0.31748   0.56926   1.000
    O482    O    0.00632   0.40079   0.97770   1.000
    O483    O    0.12987   0.31748   0.06926   1.000
    O484    O    0.00633   0.90080   0.47771   1.000
    O485    O    0.12987   0.81750   0.56926   1.000
    O486    O    0.00632   0.90080   0.97770   1.000
    O487    O    0.12987   0.81750   0.06927   1.000
    O488    O    0.50633   0.40079   0.47771   1.000
    O489    O    0.62987   0.31748   0.56926   1.000
    O490    O    0.50632   0.40079   0.97735   1.000
    O491    O    0.62987   0.31748   0.06892   1.000
    O492    O    0.50632   0.90080   0.47771   1.000
    O493    O    0.62987   0.81750   0.56926   1.000
    O494    O    0.50632   0.90080   0.97770   1.000
    O495    O    0.62987   0.81750   0.06927   1.000
    O496    O    0.30984   0.29109   0.38286   1.000
    O497    O    0.32635   0.38912   0.44117   1.000
    O498    O    0.30984   0.29110   0.88287   1.000
    O499    O    0.32635   0.38912   0.94115   1.000
    O500    O    0.30984   0.79111   0.38286   1.000
    O501    O    0.32635   0.88913   0.44117   1.000
    O502    O    0.30983   0.79111   0.88288   1.000
    O503    O    0.32634   0.88914   0.94117   1.000
    O504    O    0.80984   0.29109   0.38286   1.000
    O505    O    0.82635   0.38912   0.44117   1.000
    O506    O    0.80983   0.29110   0.88287   1.000
    O507    O    0.82634   0.38912   0.94115   1.000
    O508    O    0.80983   0.79111   0.38289   1.000
    O509    O    0.82634   0.88913   0.44117   1.000
    O510    O    0.80983   0.79111   0.88288   1.000
    O511    O    0.82634   0.88914   0.94117   1.000
    O512    O    0.93917   0.15263   0.37725   1.000
    O513    O    0.06272   0.06933   0.46883   1.000
    O514    O    0.93917   0.15264   0.87707   1.000
    O515    O    0.06272   0.06933   0.96863   1.000
    O516    O    0.93917   0.65264   0.37727   1.000
    O517    O    0.06272   0.56934   0.46883   1.000
    O518    O    0.93917   0.65265   0.87707   1.000
    O519    O    0.06272   0.56934   0.96863   1.000
    O520    O    0.43917   0.15263   0.37725   1.000
    O521    O    0.56271   0.06933   0.46883   1.000
    O522    O    0.43917   0.15264   0.87707   1.000
    O523    O    0.56271   0.06933   0.96863   1.000
    O524    O    0.43917   0.65264   0.37725   1.000
    O525    O    0.56271   0.56934   0.46883   1.000
    O526    O    0.43917   0.65265   0.87707   1.000
    O527    O    0.56271   0.56934   0.96863   1.000
    O528    O    0.94403   0.19528   0.31449   1.000
    O529    O    0.94402   0.19529   0.81450   1.000
    O530    O    0.94402   0.69530   0.31451   1.000
    O531    O    0.94402   0.69530   0.81450   1.000
    O532    O    0.44403   0.19528   0.31449   1.000
    O533    O    0.44402   0.19529   0.81450   1.000
    O534    O    0.44402   0.69530   0.31449   1.000
    O535    O    0.44402   0.69531   0.81450   1.000
    O536    O    0.29841   0.14984   0.37838   1.000
    O537    O    0.17195   0.06653   0.46996   1.000
    O538    O    0.29841   0.14984   0.87840   1.000
    O539    O    0.17195   0.06653   0.96996   1.000
    O540    O    0.29841   0.64985   0.37838   1.000
    O541    O    0.17195   0.56655   0.46996   1.000
    O542    O    0.29841   0.64986   0.87840   1.000
    O543    O    0.17195   0.56655   0.96996   1.000
    O544    O    0.79841   0.14984   0.37838   1.000
    O545    O    0.67195   0.06653   0.46996   1.000
    O546    O    0.79840   0.14984   0.87840   1.000
    O547    O    0.67195   0.06653   0.96996   1.000
    O548    O    0.79840   0.64985   0.37841   1.000
    O549    O    0.67195   0.56655   0.46996   1.000
    O550    O    0.79840   0.64986   0.87840   1.000
    O551    O    0.67195   0.56655   0.96996   1.000
    O552    O    0.30233   0.19310   0.31558   1.000
    O553    O    0.30233   0.19310   0.81559   1.000
    O554    O    0.30233   0.69311   0.31558   1.000
    O555    O    0.30232   0.69312   0.81559   1.000
    O556    O    0.80233   0.19310   0.31558   1.000
    O557    O    0.80232   0.19310   0.81559   1.000
    O558    O    0.80232   0.69311   0.31560   1.000
    O559    O    0.80232   0.69312   0.81559   1.000
    O560    O    0.07315   0.22168   0.12307   1.000
    O561    O    0.05664   0.12366   0.06479   1.000
    O562    O    0.07315   0.22169   0.62306   1.000
    O563    O    0.05664   0.12366   0.56478   1.000
    O564    O    0.07315   0.72170   0.12307   1.000
    O565    O    0.05664   0.62367   0.06479   1.000
    O566    O    0.07315   0.72170   0.62306   1.000
    O567    O    0.05664   0.62368   0.56478   1.000
    O568    O    0.57315   0.22168   0.12307   1.000
    O569    O    0.55664   0.12366   0.06479   1.000
    O570    O    0.57315   0.22169   0.62306   1.000
    O571    O    0.55664   0.12366   0.56478   1.000
    O572    O    0.57315   0.72170   0.12307   1.000
    O573    O    0.55664   0.62367   0.06478   1.000
    O574    O    0.57315   0.72170   0.62306   1.000
    O575    O    0.55663   0.62368   0.56478   1.000
    O576    O    0.37907   0.35157   0.03071   1.000
    O577    O    0.25261   0.26826   0.12228   1.000
    O578    O    0.37907   0.35157   0.53071   1.000
    O579    O    0.25261   0.26826   0.62226   1.000
    O580    O    0.37906   0.85158   0.03071   1.000
    O581    O    0.25261   0.76828   0.12228   1.000
    O582    O    0.37906   0.85158   0.53072   1.000
    O583    O    0.25261   0.76828   0.62227   1.000
    O584    O    0.87906   0.35157   0.03071   1.000
    O585    O    0.75261   0.26826   0.12228   1.000
    O586    O    0.87906   0.35157   0.53071   1.000
    O587    O    0.75260   0.26827   0.62227   1.000
    O588    O    0.87906   0.85158   0.03071   1.000
    O589    O    0.75261   0.76827   0.12228   1.000
    O590    O    0.87906   0.85158   0.53072   1.000
    O591    O    0.75260   0.76828   0.62227   1.000
    O592    O    0.37012   0.18254   0.93071   1.000
    O593    O    0.49366   0.09923   0.02227   1.000
    O594    O    0.37012   0.18254   0.43068   1.000
    O595    O    0.49366   0.09924   0.52226   1.000
    O596    O    0.37011   0.68256   0.93071   1.000
    O597    O    0.49366   0.59925   0.02227   1.000
    O598    O    0.37011   0.68256   0.43068   1.000
    O599    O    0.49365   0.59925   0.52226   1.000
    O600    O    0.87011   0.18254   0.93071   1.000
    O601    O    0.99366   0.09923   0.02227   1.000
    O602    O    0.87011   0.18254   0.43068   1.000
    O603    O    0.99366   0.09924   0.52226   1.000
    O604    O    0.87011   0.68256   0.93071   1.000
    O605    O    0.99366   0.59925   0.02227   1.000
    O606    O    0.87011   0.68256   0.43071   1.000
    O607    O    0.99365   0.59925   0.52226   1.000
    O608    O    0.19015   0.20893   0.11709   1.000
    O609    O    0.17364   0.11090   0.05881   1.000
    O610    O    0.19015   0.20893   0.61708   1.000
    O611    O    0.17364   0.11091   0.55880   1.000
    O612    O    0.19015   0.70894   0.11709   1.000
    O613    O    0.17364   0.61091   0.05881   1.000
    O614    O    0.19015   0.70895   0.61708   1.000
    O615    O    0.17363   0.61092   0.55880   1.000
    O616    O    0.69015   0.20893   0.11709   1.000
    O617    O    0.67364   0.11090   0.05881   1.000
    O618    O    0.69014   0.20893   0.61708   1.000
    O619    O    0.67363   0.11091   0.55880   1.000
    O620    O    0.69015   0.70894   0.11709   1.000
    O621    O    0.67364   0.61092   0.05881   1.000
    O622    O    0.69014   0.70895   0.61708   1.000
    O623    O    0.67363   0.61092   0.55880   1.000
    O624    O    0.43727   0.43070   0.03114   1.000
    O625    O    0.56081   0.34739   0.12271   1.000
    O626    O    0.43727   0.43070   0.53114   1.000
    O627    O    0.56081   0.34739   0.62270   1.000
    O628    O    0.43727   0.93071   0.03114   1.000
    O629    O    0.56081   0.84740   0.12271   1.000
    O630    O    0.43727   0.93071   0.53114   1.000
    O631    O    0.56081   0.84741   0.62270   1.000
    O632    O    0.93727   0.43070   0.03114   1.000
    O633    O    0.06081   0.34739   0.12271   1.000
    O634    O    0.93727   0.43070   0.53114   1.000
    O635    O    0.06081   0.34739   0.62270   1.000
    O636    O    0.93726   0.93071   0.03114   1.000
    O637    O    0.06081   0.84740   0.12271   1.000
    O638    O    0.93726   0.93071   0.53114   1.000
    O639    O    0.06081   0.84741   0.62270   1.000
    O640    O    0.55596   0.30473   0.18547   1.000
    O641    O    0.55596   0.30474   0.68546   1.000
    O642    O    0.55596   0.80475   0.18547   1.000
    O643    O    0.55595   0.80475   0.68546   1.000
    O644    O    0.05596   0.30473   0.18547   1.000
    O645    O    0.05596   0.30474   0.68546   1.000
    O646    O    0.05596   0.80475   0.18547   1.000
    O647    O    0.05595   0.80475   0.68546   1.000
    O648    O    0.32803   0.43349   0.03001   1.000
    O649    O    0.20158   0.35018   0.12157   1.000
    O650    O    0.32803   0.43349   0.53001   1.000
    O651    O    0.20158   0.35019   0.62156   1.000
    O652    O    0.32803   0.93351   0.03001   1.000
    O653    O    0.20158   0.85020   0.12157   1.000
    O654    O    0.32803   0.93351   0.53001   1.000
    O655    O    0.20157   0.85020   0.62156   1.000
    O656    O    0.82803   0.43349   0.03001   1.000
    O657    O    0.70158   0.35018   0.12157   1.000
    O658    O    0.82803   0.43349   0.53001   1.000
    O659    O    0.70157   0.35019   0.62156   1.000
    O660    O    0.82803   0.93351   0.03001   1.000
    O661    O    0.70157   0.85020   0.12157   1.000
    O662    O    0.82803   0.93351   0.53001   1.000
    O663    O    0.70157   0.85020   0.62156   1.000
    O664    O    0.19766   0.30692   0.18438   1.000
    O665    O    0.19766   0.30693   0.68437   1.000
    O666    O    0.19766   0.80694   0.18438   1.000
    O667    O    0.19765   0.80694   0.68437   1.000
    O668    O    0.69766   0.30692   0.18438   1.000
    O669    O    0.69765   0.30693   0.68437   1.000
    O670    O    0.69765   0.80694   0.18438   1.000
    O671    O    0.69765   0.80694   0.68437   1.000
loop_
    _geom_bond_atom_site_label_1
    _geom_bond_atom_site_label_2
    _geom_bond_distance
    _geom_bond_site_symmetry_2
    _ccdc_geom_bond_type
    Zr182  O224      0.63559      .   S
    Zr78   O224      0.63559      .   S
    Zr180  O225      0.63565      .   S
    Zr76   O225      0.63565      .   S
    Zr178  O226      0.63405      .   S
    Zr74   O226      0.63405      .   S
    Zr176  O227      0.63493      .   S
    Zr72   O227      0.63493      .   S
    Zr30   O228      1.38731      .   S
    Zr212  O228      1.38731      .   S
    Zr30   O229      1.39170      .   S
    Zr192  O229      1.39170      .   S
    Zr28   O230      1.38715      .   S
    Zr214  O230      1.38715  1_565   S
    Zr28   O231      1.39153  1_545   S
    Zr194  O231      1.39153      .   S
    Zr26   O232      1.38731      .   S
    Zr208  O232      1.38731      .   S
    Zr26   O233      1.39173      .   S
    Zr196  O233      1.39173  1_655   S
    Zr24   O234      1.38715      .   S
    Zr210  O234      1.38715  1_565   S
    Zr24   O235      1.39156  1_545   S
    Zr198  O235      1.39156  1_655   S
    Zr74   O236      0.63520      .   S
    Zr186  O236      0.63520      .   S
    Zr74   O237      0.77519      .   S
    Zr66   O237      0.77519      .   S
    Zr72   O238      0.63492      .   S
    Zr184  O238      0.63492      .   S
    Zr72   O239      0.77457      .   S
    Zr64   O239      0.77457      .   S
    Zr78   O240      0.63471      .   S
    Zr190  O240      0.63471      .   S
    Zr78   O241      0.77408      .   S
    Zr70   O241      0.77408      .   S
    Zr76   O242      0.63470      .   S
    Zr188  O242      0.63470      .   S
    Zr76   O243      0.77400      .   S
    Zr68   O243      0.77400      .   S
    Zr66   O244      0.63646      .   S
    Zr170  O244      0.63646      .   S
    Zr66   O245      0.63367      .   S
    Zr166  O245      0.63367      .   S
    Zr68   O246      0.63645      .   S
    Zr172  O246      0.63645      .   S
    Zr68   O247      0.63371      .   S
    Zr160  O247      0.63371  1_455   S
    Zr64   O248      0.63642      .   S
    Zr168  O248      0.63642      .   S
    Zr64   O249      0.63367      .   S
    Zr164  O249      0.63367      .   S
    Zr70   O250      0.63642      .   S
    Zr174  O250      0.63642      .   S
    Zr70   O251      0.63371      .   S
    Zr162  O251      0.63371  1_455   S
    Zr210  O252      0.63901      .   S
    Zr90   O252      0.63901      .   S
    Zr212  O253      0.63901      .   S
    Zr92   O253      0.63901      .   S
    Zr214  O254      0.63901      .   S
    Zr94   O254      0.63901      .   S
    Zr208  O255      0.63901      .   S
    Zr88   O255      0.63901      .   S
    Zr194  O256      0.63997      .   S
    Zr82   O256      0.63997      .   S
    Zr196  O257      0.63998      .   S
    Zr84   O257      0.63998      .   S
    Zr198  O258      0.63998      .   S
    Zr86   O258      0.63998      .   S
    Zr192  O259      0.63998      .   S
    Zr80   O259      0.63998      .   S
    Zr18   O260      1.39064      .   S
    Zr138  O260      1.39064      .   S
    Zr18   O261      1.40539      .   S
    Zr154  O261      1.40539      .   S
    Zr16   O262      1.39065      .   S
    Zr136  O262      1.39065      .   S
    Zr16   O263      1.40539      .   S
    Zr152  O263      1.40539      .   S
    Zr20   O264      1.39064      .   S
    Zr140  O264      1.39064      .   S
    Zr20   O265      1.40539      .   S
    Zr156  O265      1.40539      .   S
    Zr22   O266      1.39065      .   S
    Zr142  O266      1.39065      .   S
    Zr22   O267      1.40539      .   S
    Zr158  O267      1.40539      .   S
    Zr88   O268      0.77985      .   S
    Zr80   O268      0.77985      .   S
    Zr88   O269      0.63078      .   S
    Zr216  O269      0.63078      .   S
    Zr90   O270      0.77986      .   S
    Zr82   O270      0.77986      .   S
    Zr90   O271      0.63078      .   S
    Zr218  O271      0.63078      .   S
    Zr94   O272      0.77985      .   S
    Zr86   O272      0.77985      .   S
    Zr94   O273      0.63079      .   S
    Zr222  O273      0.63079      .   S
    Zr92   O274      0.77986      .   S
    Zr84   O274      0.77986      .   S
    Zr92   O275      0.63078      .   S
    Zr220  O275      0.63078      .   S
    Zr84   O276      0.62957      .   S
    Zr204  O276      0.62957      .   S
    Zr80   O277      0.62957      .   S
    Zr200  O277      0.62957      .   S
    Zr82   O278      0.62957      .   S
    Zr202  O278      0.62957      .   S
    Zr86   O279      0.62957      .   S
    Zr206  O279      0.62957      .   S
    Zr222  O280      1.40545      .   S
    Zr6    O280      1.40545      .   S
    Zr216  O281      1.40514      .   S
    Zr0    O281      1.40514      .   S
    Zr220  O282      1.40514      .   S
    Zr4    O282      1.40514      .   S
    Zr218  O283      1.40514      .   S
    Zr2    O283      1.40514      .   S
    Zr206  O284      1.39070      .   S
    Zr6    O284      1.39070      .   S
    Zr204  O285      1.39043      .   S
    Zr4    O285      1.39043      .   S
    Zr202  O286      1.39043      .   S
    Zr2    O286      1.39043      .   S
    Zr200  O287      1.39044      .   S
    Zr0    O287      1.39044      .   S
    Zr142  O288      0.62957      .   S
    Zr54   O288      0.62957      .   S
    Zr140  O289      0.62957      .   S
    Zr52   O289      0.62957      .   S
    Zr138  O290      0.62957      .   S
    Zr50   O290      0.62957      .   S
    Zr136  O291      0.62957      .   S
    Zr48   O291      0.62957      .   S
    Zr152  O292      0.63079      .   S
    Zr56   O292      0.63079      .   S
    Zr154  O293      0.63078      .   S
    Zr58   O293      0.63078      .   S
    Zr158  O294      0.63079      .   S
    Zr62   O294      0.63079      .   S
    Zr156  O295      0.63078      .   S
    Zr60   O295      0.63078      .   S
    Zr48   O296      0.77985      .   S
    Zr56   O296      0.77985      .   S
    Zr48   O297      0.63998      .   S
    Zr128  O297      0.63998      .   S
    Zr54   O298      0.77985      .   S
    Zr62   O298      0.77985      .   S
    Zr54   O299      0.63998      .   S
    Zr134  O299      0.63998      .   S
    Zr52   O300      0.77985      .   S
    Zr60   O300      0.77985      .   S
    Zr52   O301      0.63998      .   S
    Zr132  O301      0.63998      .   S
    Zr50   O302      0.77985      .   S
    Zr58   O302      0.77985      .   S
    Zr50   O303      0.63998      .   S
    Zr130  O303      0.63998      .   S
    Zr62   O304      0.63901      .   S
    Zr150  O304      0.63901      .   S
    Zr60   O305      0.63901      .   S
    Zr148  O305      0.63901      .   S
    Zr58   O306      0.63901      .   S
    Zr146  O306      0.63901      .   S
    Zr56   O307      0.63901      .   S
    Zr144  O307      0.63901      .   S
    Zr100  O308      0.63367  1_655   S
    Zr32   O308      0.63367      .   S
    Zr96   O309      0.63366      .   S
    Zr36   O309      0.63366      .   S
    Zr98   O310      0.63366      .   S
    Zr38   O310      0.63366      .   S
    Zr102  O311      0.63370  1_655   S
    Zr34   O311      0.63370      .   S
    Zr128  O312      1.39156  1_455   S
    Zr14   O312      1.39156  1_565   S
    Zr134  O313      1.39170      .   S
    Zr8    O313      1.39170      .   S
    Zr132  O314      1.39153      .   S
    Zr10   O314      1.39153  1_565   S
    Zr130  O315      1.39173  1_455   S
    Zr12   O315      1.39173      .   S
    Zr104  O316      0.63621      .   S
    Zr32   O316      0.63621      .   S
    Zr106  O317      0.63645      .   S
    Zr34   O317      0.63645      .   S
    Zr108  O318      0.63644      .   S
    Zr36   O318      0.63644      .   S
    Zr110  O319      0.63645      .   S
    Zr38   O319      0.63645      .   S
    Zr150  O320      1.38732      .   S
    Zr12   O320      1.38732      .   S
    Zr148  O321      1.38716  1_545   S
    Zr14   O321      1.38716      .   S
    Zr146  O322      1.38732      .   S
    Zr8    O322      1.38732      .   S
    Zr144  O323      1.38715  1_545   S
    Zr10   O323      1.38715      .   S
    Zr32   O324      0.77437      .   S
    Zr40   O324      0.77437      .   S
    Zr38   O325      0.77403      .   S
    Zr46   O325      0.77403      .   S
    Zr36   O326      0.77406      .   S
    Zr44   O326      0.77406      .   S
    Zr34   O327      0.77403      .   S
    Zr42   O327      0.77403      .   S
    Zr124  O328      0.63471      .   S
    Zr44   O328      0.63471      .   S
    Zr120  O329      0.63472      .   S
    Zr40   O329      0.63472      .   S
    Zr122  O330      0.63470      .   S
    Zr42   O330      0.63470      .   S
    Zr126  O331      0.63470      .   S
    Zr46   O331      0.63470      .   S
    Zr42   O332      0.63567      .   S
    Zr114  O332      0.63567      .   S
    Zr44   O333      0.63562      .   S
    Zr116  O333      0.63562      .   S
    Zr46   O334      0.63564      .   S
    Zr118  O334      0.63564      .   S
    Zr40   O335      0.63560      .   S
    Zr112  O335      0.63560      .   S
    Zr183  O336      0.63562      .   S
    Zr79   O336      0.63562      .   S
    Zr179  O337      0.63559      .   S
    Zr75   O337      0.63559      .   S
    Zr177  O338      0.63562      .   S
    Zr73   O338      0.63562      .   S
    Zr181  O339      0.63564      .   S
    Zr77   O339      0.63564      .   S
    Zr31   O340      1.38732      .   S
    Zr213  O340      1.38732      .   S
    Zr31   O341      1.39171      .   S
    Zr193  O341      1.39171      .   S
    Zr29   O342      1.38715      .   S
    Zr215  O342      1.38715  1_565   S
    Zr29   O343      1.39153  1_545   S
    Zr195  O343      1.39153      .   S
    Zr27   O344      1.38732      .   S
    Zr209  O344      1.38732      .   S
    Zr27   O345      1.39173      .   S
    Zr197  O345      1.39173  1_655   S
    Zr25   O346      1.38715      .   S
    Zr211  O346      1.38715  1_565   S
    Zr25   O347      1.39156  1_545   S
    Zr199  O347      1.39156  1_655   S
    Zr79   O348      0.63471      .   S
    Zr191  O348      0.63471      .   S
    Zr79   O349      0.77388      .   S
    Zr71   O349      0.77388      .   S
    Zr75   O350      0.63472      .   S
    Zr187  O350      0.63472      .   S
    Zr75   O351      0.77405      .   S
    Zr67   O351      0.77405      .   S
    Zr73   O352      0.63470      .   S
    Zr185  O352      0.63470      .   S
    Zr73   O353      0.77389      .   S
    Zr65   O353      0.77389      .   S
    Zr77   O354      0.63470      .   S
    Zr189  O354      0.63470      .   S
    Zr77   O355      0.77403      .   S
    Zr69   O355      0.77403      .   S
    Zr71   O356      0.63659      .   S
    Zr175  O356      0.63659      .   S
    Zr71   O357      0.63373      .   S
    Zr163  O357      0.63373  1_455   S
    Zr65   O358      0.63649      .   S
    Zr169  O358      0.63649      .   S
    Zr65   O359      0.63368      .   S
    Zr165  O359      0.63368      .   S
    Zr69   O360      0.63645      .   S
    Zr173  O360      0.63645      .   S
    Zr69   O361      0.63371      .   S
    Zr161  O361      0.63371  1_455   S
    Zr67   O362      0.63648      .   S
    Zr171  O362      0.63648      .   S
    Zr67   O363      0.63366      .   S
    Zr167  O363      0.63366      .   S
    Zr213  O364      0.63893      .   S
    Zr93   O364      0.63893      .   S
    Zr209  O365      0.63893      .   S
    Zr89   O365      0.63893      .   S
    Zr211  O366      0.63893      .   S
    Zr91   O366      0.63893      .   S
    Zr215  O367      0.63893      .   S
    Zr95   O367      0.63893      .   S
    Zr195  O368      0.63998      .   S
    Zr83   O368      0.63998      .   S
    Zr193  O369      0.63998      .   S
    Zr81   O369      0.63998      .   S
    Zr197  O370      0.63998      .   S
    Zr85   O370      0.63998      .   S
    Zr199  O371      0.63998      .   S
    Zr87   O371      0.63998      .   S
    Zr17   O372      1.39065      .   S
    Zr137  O372      1.39065      .   S
    Zr17   O373      1.40539      .   S
    Zr153  O373      1.40539      .   S
    Zr19   O374      1.39064      .   S
    Zr139  O374      1.39064      .   S
    Zr19   O375      1.40539      .   S
    Zr155  O375      1.40539      .   S
    Zr21   O376      1.39064      .   S
    Zr141  O376      1.39064      .   S
    Zr21   O377      1.40539      .   S
    Zr157  O377      1.40539      .   S
    Zr23   O378      1.39064      .   S
    Zr143  O378      1.39064      .   S
    Zr23   O379      1.40538      .   S
    Zr159  O379      1.40538      .   S
    Zr89   O380      0.77986      .   S
    Zr81   O380      0.77986      .   S
    Zr89   O381      0.63084      .   S
    Zr217  O381      0.63084      .   S
    Zr91   O382      0.77986      .   S
    Zr83   O382      0.77986      .   S
    Zr91   O383      0.63085      .   S
    Zr219  O383      0.63085      .   S
    Zr93   O384      0.77986      .   S
    Zr85   O384      0.77986      .   S
    Zr93   O385      0.63085      .   S
    Zr221  O385      0.63085      .   S
    Zr95   O386      0.77987      .   S
    Zr87   O386      0.77987      .   S
    Zr95   O387      0.63084      .   S
    Zr223  O387      0.63084      .   S
    Zr85   O388      0.62957      .   S
    Zr205  O388      0.62957      .   S
    Zr87   O389      0.62957      .   S
    Zr207  O389      0.62957      .   S
    Zr83   O390      0.62957      .   S
    Zr203  O390      0.62957      .   S
    Zr81   O391      0.62957      .   S
    Zr201  O391      0.62957      .   S
    Zr217  O392      1.40545      .   S
    Zr1    O392      1.40545      .   S
    Zr219  O393      1.40545      .   S
    Zr3    O393      1.40545      .   S
    Zr221  O394      1.40545      .   S
    Zr5    O394      1.40545      .   S
    Zr223  O395      1.40545      .   S
    Zr7    O395      1.40545      .   S
    Zr201  O396      1.39070      .   S
    Zr1    O396      1.39070      .   S
    Zr203  O397      1.39070      .   S
    Zr3    O397      1.39070      .   S
    Zr205  O398      1.39070      .   S
    Zr5    O398      1.39070      .   S
    Zr207  O399      1.39070      .   S
    Zr7    O399      1.39070      .   S
    Zr137  O400      0.62964      .   S
    Zr49   O400      0.62964      .   S
    Zr139  O401      0.62964      .   S
    Zr51   O401      0.62964      .   S
    Zr141  O402      0.62964      .   S
    Zr53   O402      0.62964      .   S
    Zr143  O403      0.62964      .   S
    Zr55   O403      0.62964      .   S
    Zr157  O404      0.63079      .   S
    Zr61   O404      0.63079      .   S
    Zr159  O405      0.63078      .   S
    Zr63   O405      0.63078      .   S
    Zr153  O406      0.63079      .   S
    Zr57   O406      0.63079      .   S
    Zr155  O407      0.63079      .   S
    Zr59   O407      0.63079      .   S
    Zr49   O408      0.77984      .   S
    Zr57   O408      0.77984      .   S
    Zr49   O409      0.63735      .   S
    Zr129  O409      0.63735      .   S
    Zr51   O410      0.77984      .   S
    Zr59   O410      0.77984      .   S
    Zr51   O411      0.63735      .   S
    Zr131  O411      0.63735      .   S
    Zr53   O412      0.77984      .   S
    Zr61   O412      0.77984      .   S
    Zr53   O413      0.63735      .   S
    Zr133  O413      0.63735      .   S
    Zr55   O414      0.77985      .   S
    Zr63   O414      0.77985      .   S
    Zr55   O415      0.63734      .   S
    Zr135  O415      0.63734      .   S
    Zr57   O416      0.63901      .   S
    Zr145  O416      0.63901      .   S
    Zr59   O417      0.63901      .   S
    Zr147  O417      0.63901      .   S
    Zr61   O418      0.63901      .   S
    Zr149  O418      0.63901      .   S
    Zr63   O419      0.63901      .   S
    Zr151  O419      0.63901      .   S
    Zr103  O420      0.63373  1_655   S
    Zr35   O420      0.63373      .   S
    Zr99   O421      0.63372      .   S
    Zr39   O421      0.63372      .   S
    Zr101  O422      0.63370  1_655   S
    Zr33   O422      0.63370      .   S
    Zr97   O423      0.63367      .   S
    Zr37   O423      0.63367      .   S
    Zr135  O424      1.39177      .   S
    Zr9    O424      1.39177      .   S
    Zr133  O425      1.39160      .   S
    Zr11   O425      1.39160  1_565   S
    Zr131  O426      1.39180  1_455   S
    Zr13   O426      1.39180      .   S
    Zr129  O427      1.39163  1_455   S
    Zr15   O427      1.39163  1_565   S
    Zr109  O428      0.63646      .   S
    Zr37   O428      0.63646      .   S
    Zr111  O429      0.63648      .   S
    Zr39   O429      0.63648      .   S
    Zr107  O430      0.63626      .   S
    Zr35   O430      0.63626      .   S
    Zr105  O431      0.63645      .   S
    Zr33   O431      0.63645      .   S
    Zr151  O432      1.38732      .   S
    Zr13   O432      1.38732      .   S
    Zr145  O433      1.38717  1_545   S
    Zr11   O433      1.38717      .   S
    Zr147  O434      1.38732      .   S
    Zr9    O434      1.38732      .   S
    Zr149  O435      1.38716  1_545   S
    Zr15   O435      1.38716      .   S
    Zr35   O436      0.77429      .   S
    Zr43   O436      0.77429      .   S
    Zr33   O437      0.77355      .   S
    Zr41   O437      0.77355      .   S
    Zr39   O438      0.77400      .   S
    Zr47   O438      0.77400      .   S
    Zr37   O439      0.77405      .   S
    Zr45   O439      0.77405      .   S
    Zr125  O440      0.63478      .   S
    Zr45   O440      0.63478      .   S
    Zr121  O441      0.63455      .   S
    Zr41   O441      0.63455      .   S
    Zr127  O442      0.63469      .   S
    Zr47   O442      0.63469      .   S
    Zr123  O443      0.63468      .   S
    Zr43   O443      0.63468      .   S
    Zr41   O444      0.63630      .   S
    Zr113  O444      0.63630      .   S
    Zr43   O445      0.63568      .   S
    Zr115  O445      0.63568      .   S
    Zr45   O446      0.62993      .   S
    Zr117  O446      0.62993      .   S
    Zr47   O447      0.63568      .   S
    Zr119  O447      0.63568      .   S
    Zr96   O448      1.44081      .   S
    Zr0    O448      1.44081      .   S
    Zr96   O449      1.39833      .   S
    Zr8    O449      1.39833      .   S
    Zr97   O450      1.44049      .   S
    Zr1    O450      1.44049      .   S
    Zr97   O451      1.39832      .   S
    Zr9    O451      1.39832      .   S
    Zr98   O452      1.44080      .   S
    Zr2    O452      1.44080      .   S
    Zr98   O453      1.39833      .   S
    Zr10   O453      1.39833      .   S
    Zr99   O454      1.44007      .   S
    Zr3    O454      1.44007      .   S
    Zr99   O455      1.39876      .   S
    Zr11   O455      1.39876      .   S
    Zr100  O456      1.44073      .   S
    Zr4    O456      1.44073      .   S
    Zr100  O457      1.39839      .   S
    Zr12   O457      1.39839      .   S
    Zr101  O458      1.44050      .   S
    Zr5    O458      1.44050      .   S
    Zr101  O459      1.39832      .   S
    Zr13   O459      1.39832      .   S
    Zr102  O460      1.44050      .   S
    Zr6    O460      1.44050      .   S
    Zr102  O461      1.39834      .   S
    Zr14   O461      1.39834      .   S
    Zr103  O462      1.44007      .   S
    Zr7    O462      1.44007      .   S
    Zr103  O463      1.39877      .   S
    Zr15   O463      1.39877      .   S
    Zr104  O464      1.46513      .   S
    Zr0    O464      1.46513      .   S
    Zr104  O465      1.42846      .   S
    Zr25   O465      1.42846      .   S
    Zr105  O466      1.46501      .   S
    Zr1    O466      1.46501      .   S
    Zr105  O467      1.42858      .   S
    Zr24   O467      1.42858  1_554   S
    Zr106  O468      1.46513      .   S
    Zr2    O468      1.46513      .   S
    Zr106  O469      1.42843      .   S
    Zr27   O469      1.42843      .   S
    Zr107  O470      1.46501      .   S
    Zr3    O470      1.46501      .   S
    Zr107  O471      1.42860      .   S
    Zr26   O471      1.42860  1_554   S
    Zr108  O472      1.46513      .   S
    Zr4    O472      1.46513      .   S
    Zr108  O473      1.42844      .   S
    Zr29   O473      1.42844      .   S
    Zr109  O474      1.46501      .   S
    Zr5    O474      1.46501      .   S
    Zr109  O475      1.42859      .   S
    Zr28   O475      1.42859  1_554   S
    Zr110  O476      1.46500      .   S
    Zr6    O476      1.46500      .   S
    Zr110  O477      1.42845      .   S
    Zr31   O477      1.42845      .   S
    Zr111  O478      1.46501      .   S
    Zr7    O478      1.46501      .   S
    Zr111  O479      1.42860      .   S
    Zr30   O479      1.42860  1_554   S
    Zr112  O480      1.47004      .   S
    Zr12   O480      1.47004  1_655   S
    Zr112  O481      1.44444      .   S
    Zr17   O481      1.44444      .   S
    Zr113  O482      1.47004      .   S
    Zr13   O482      1.47004  1_655   S
    Zr113  O483      1.44461  1_556   S
    Zr16   O483      1.44461      .   S
    Zr114  O484      1.47003      .   S
    Zr14   O484      1.47003  1_655   S
    Zr114  O485      1.44444      .   S
    Zr19   O485      1.44444      .   S
    Zr115  O486      1.47004      .   S
    Zr15   O486      1.47004  1_655   S
    Zr115  O487      1.44453  1_556   S
    Zr18   O487      1.44453      .   S
    Zr116  O488      1.46999      .   S
    Zr8    O488      1.46999      .   S
    Zr116  O489      1.44444      .   S
    Zr21   O489      1.44444      .   S
    Zr117  O490      1.46945      .   S
    Zr9    O490      1.46945      .   S
    Zr117  O491      1.45007  1_556   S
    Zr20   O491      1.45007      .   S
    Zr118  O492      1.47000      .   S
    Zr10   O492      1.47000      .   S
    Zr118  O493      1.44444      .   S
    Zr23   O493      1.44444      .   S
    Zr119  O494      1.47000      .   S
    Zr11   O494      1.47000      .   S
    Zr119  O495      1.44453  1_556   S
    Zr22   O495      1.44453      .   S
    Zr120  O496      1.42511      .   S
    Zr0    O496      1.42511      .   S
    Zr120  O497      1.41290      .   S
    Zr8    O497      1.41290      .   S
    Zr121  O498      1.42466      .   S
    Zr1    O498      1.42466      .   S
    Zr121  O499      1.41301      .   S
    Zr9    O499      1.41301      .   S
    Zr122  O500      1.42513      .   S
    Zr2    O500      1.42513      .   S
    Zr122  O501      1.41286      .   S
    Zr10   O501      1.41286      .   S
    Zr123  O502      1.42484      .   S
    Zr3    O502      1.42484      .   S
    Zr123  O503      1.41286      .   S
    Zr11   O503      1.41286      .   S
    Zr124  O504      1.42512      .   S
    Zr4    O504      1.42512      .   S
    Zr124  O505      1.41288      .   S
    Zr12   O505      1.41288      .   S
    Zr125  O506      1.42465      .   S
    Zr5    O506      1.42465      .   S
    Zr125  O507      1.41302      .   S
    Zr13   O507      1.41302      .   S
    Zr126  O508      1.42479      .   S
    Zr6    O508      1.42479      .   S
    Zr126  O509      1.41289      .   S
    Zr14   O509      1.41289      .   S
    Zr127  O510      1.42484      .   S
    Zr7    O510      1.42484      .   S
    Zr127  O511      1.41285      .   S
    Zr15   O511      1.41285      .   S
    Zr128  O512      1.57151  1_455   S
    Zr4    O512      1.57151      .   S
    Zr128  O513      1.40568      .   S
    Zr25   O513      1.40568      .   S
    Zr129  O514      1.57147  1_455   S
    Zr5    O514      1.57147      .   S
    Zr129  O515      1.40930      .   S
    Zr24   O515      1.40930  1_554   S
    Zr130  O516      1.57152  1_455   S
    Zr6    O516      1.57152      .   S
    Zr130  O517      1.40568      .   S
    Zr27   O517      1.40568      .   S
    Zr131  O518      1.57147  1_455   S
    Zr7    O518      1.57147      .   S
    Zr131  O519      1.40930      .   S
    Zr26   O519      1.40930  1_554   S
    Zr132  O520      1.57150      .   S
    Zr0    O520      1.57150      .   S
    Zr132  O521      1.40568      .   S
    Zr29   O521      1.40568      .   S
    Zr133  O522      1.57145      .   S
    Zr1    O522      1.57145      .   S
    Zr133  O523      1.40930      .   S
    Zr28   O523      1.40930  1_554   S
    Zr134  O524      1.57149      .   S
    Zr2    O524      1.57149      .   S
    Zr134  O525      1.40568      .   S
    Zr31   O525      1.40568      .   S
    Zr135  O526      1.57145      .   S
    Zr3    O526      1.57145      .   S
    Zr135  O527      1.40930      .   S
    Zr30   O527      1.40930  1_554   S
    Zr136  O528      1.47379  1_455   S
    Zr4    O528      1.47379      .   S
    Zr137  O529      1.47407  1_455   S
    Zr5    O529      1.47407      .   S
    Zr138  O530      1.47408  1_455   S
    Zr6    O530      1.47408      .   S
    Zr139  O531      1.47408  1_455   S
    Zr7    O531      1.47408      .   S
    Zr140  O532      1.47377      .   S
    Zr0    O532      1.47377      .   S
    Zr141  O533      1.47405      .   S
    Zr1    O533      1.47405      .   S
    Zr142  O534      1.47376      .   S
    Zr2    O534      1.47376      .   S
    Zr143  O535      1.47405      .   S
    Zr3    O535      1.47405      .   S
    Zr144  O536      1.60562      .   S
    Zr0    O536      1.60562      .   S
    Zr144  O537      1.41548      .   S
    Zr25   O537      1.41548      .   S
    Zr145  O538      1.60567      .   S
    Zr1    O538      1.60567      .   S
    Zr145  O539      1.41559      .   S
    Zr24   O539      1.41559  1_554   S
    Zr146  O540      1.60563      .   S
    Zr2    O540      1.60563      .   S
    Zr146  O541      1.41549      .   S
    Zr27   O541      1.41549      .   S
    Zr147  O542      1.60567      .   S
    Zr3    O542      1.60567      .   S
    Zr147  O543      1.41558      .   S
    Zr26   O543      1.41558  1_554   S
    Zr148  O544      1.60562      .   S
    Zr4    O544      1.60562      .   S
    Zr148  O545      1.41548      .   S
    Zr29   O545      1.41548      .   S
    Zr149  O546      1.60567      .   S
    Zr5    O546      1.60567      .   S
    Zr149  O547      1.41559      .   S
    Zr28   O547      1.41559  1_554   S
    Zr150  O548      1.60567      .   S
    Zr6    O548      1.60567      .   S
    Zr150  O549      1.41549      .   S
    Zr31   O549      1.41549      .   S
    Zr151  O550      1.60567      .   S
    Zr7    O550      1.60567      .   S
    Zr151  O551      1.41559      .   S
    Zr30   O551      1.41559  1_554   S
    Zr152  O552      1.45587      .   S
    Zr0    O552      1.45587      .   S
    Zr153  O553      1.45622      .   S
    Zr1    O553      1.45622      .   S
    Zr154  O554      1.45588      .   S
    Zr2    O554      1.45588      .   S
    Zr155  O555      1.45622      .   S
    Zr3    O555      1.45622      .   S
    Zr156  O556      1.45588      .   S
    Zr4    O556      1.45588      .   S
    Zr157  O557      1.45622      .   S
    Zr5    O557      1.45622      .   S
    Zr158  O558      1.45621      .   S
    Zr6    O558      1.45621      .   S
    Zr159  O559      1.45622      .   S
    Zr7    O559      1.45622      .   S
    Zr160  O560      1.44050      .   S
    Zr16   O560      1.44050      .   S
    Zr160  O561      1.39832      .   S
    Zr24   O561      1.39832      .   S
    Zr161  O562      1.44050      .   S
    Zr17   O562      1.44050      .   S
    Zr161  O563      1.39832      .   S
    Zr25   O563      1.39832      .   S
    Zr162  O564      1.44049      .   S
    Zr18   O564      1.44049      .   S
    Zr162  O565      1.39832      .   S
    Zr26   O565      1.39832      .   S
    Zr163  O566      1.44049      .   S
    Zr19   O566      1.44049      .   S
    Zr163  O567      1.39830      .   S
    Zr27   O567      1.39830      .   S
    Zr164  O568      1.44049      .   S
    Zr20   O568      1.44049      .   S
    Zr164  O569      1.39832      .   S
    Zr28   O569      1.39832      .   S
    Zr165  O570      1.44049      .   S
    Zr21   O570      1.44049      .   S
    Zr165  O571      1.39831      .   S
    Zr29   O571      1.39831      .   S
    Zr166  O572      1.44056      .   S
    Zr22   O572      1.44056      .   S
    Zr166  O573      1.39827      .   S
    Zr30   O573      1.39827      .   S
    Zr167  O574      1.44050      .   S
    Zr23   O574      1.44050      .   S
    Zr167  O575      1.39830      .   S
    Zr31   O575      1.39830      .   S
    Zr168  O576      1.42855      .   S
    Zr9    O576      1.42855  1_556   S
    Zr168  O577      1.46503      .   S
    Zr16   O577      1.46503      .   S
    Zr169  O578      1.42839      .   S
    Zr8    O578      1.42839      .   S
    Zr169  O579      1.46505      .   S
    Zr17   O579      1.46505      .   S
    Zr170  O580      1.42853      .   S
    Zr11   O580      1.42853  1_556   S
    Zr170  O581      1.46503      .   S
    Zr18   O581      1.46503      .   S
    Zr171  O582      1.42847      .   S
    Zr10   O582      1.42847      .   S
    Zr171  O583      1.46502      .   S
    Zr19   O583      1.46502      .   S
    Zr172  O584      1.42855      .   S
    Zr13   O584      1.42855  1_556   S
    Zr172  O585      1.46503      .   S
    Zr20   O585      1.46503      .   S
    Zr173  O586      1.42841      .   S
    Zr12   O586      1.42841      .   S
    Zr173  O587      1.46504      .   S
    Zr21   O587      1.46504      .   S
    Zr174  O588      1.42855      .   S
    Zr15   O588      1.42855  1_556   S
    Zr174  O589      1.46503      .   S
    Zr22   O589      1.46503      .   S
    Zr175  O590      1.42847      .   S
    Zr14   O590      1.42847      .   S
    Zr175  O591      1.46501      .   S
    Zr23   O591      1.46501      .   S
    Zr176  O592      1.44453  1_554   S
    Zr1    O592      1.44453      .   S
    Zr176  O593      1.47000      .   S
    Zr28   O593      1.47000      .   S
    Zr177  O594      1.44475      .   S
    Zr0    O594      1.44475      .   S
    Zr177  O595      1.47001      .   S
    Zr29   O595      1.47001      .   S
    Zr178  O596      1.44454  1_554   S
    Zr3    O596      1.44454      .   S
    Zr178  O597      1.47000      .   S
    Zr30   O597      1.47000      .   S
    Zr179  O598      1.44475      .   S
    Zr2    O598      1.44475      .   S
    Zr179  O599      1.47000      .   S
    Zr31   O599      1.47000      .   S
    Zr180  O600      1.44453  1_554   S
    Zr5    O600      1.44453      .   S
    Zr180  O601      1.47004      .   S
    Zr24   O601      1.47004  1_455   S
    Zr181  O602      1.44475      .   S
    Zr4    O602      1.44475      .   S
    Zr181  O603      1.47004      .   S
    Zr25   O603      1.47004  1_455   S
    Zr182  O604      1.44453  1_554   S
    Zr7    O604      1.44453      .   S
    Zr182  O605      1.47005      .   S
    Zr26   O605      1.47005  1_455   S
    Zr183  O606      1.44436      .   S
    Zr6    O606      1.44436      .   S
    Zr183  O607      1.47004      .   S
    Zr27   O607      1.47004  1_455   S
    Zr184  O608      1.42485      .   S
    Zr16   O608      1.42485      .   S
    Zr184  O609      1.41284      .   S
    Zr24   O609      1.41284      .   S
    Zr185  O610      1.42484      .   S
    Zr17   O610      1.42484      .   S
    Zr185  O611      1.41286      .   S
    Zr25   O611      1.41286      .   S
    Zr186  O612      1.42487      .   S
    Zr18   O612      1.42487      .   S
    Zr186  O613      1.41281      .   S
    Zr26   O613      1.41281      .   S
    Zr187  O614      1.42483      .   S
    Zr19   O614      1.42483      .   S
    Zr187  O615      1.41286      .   S
    Zr27   O615      1.41286      .   S
    Zr188  O616      1.42485      .   S
    Zr20   O616      1.42485      .   S
    Zr188  O617      1.41283      .   S
    Zr28   O617      1.41283      .   S
    Zr189  O618      1.42485      .   S
    Zr21   O618      1.42485      .   S
    Zr189  O619      1.41283      .   S
    Zr29   O619      1.41283      .   S
    Zr190  O620      1.42485      .   S
    Zr22   O620      1.42485      .   S
    Zr190  O621      1.41285      .   S
    Zr30   O621      1.41285      .   S
    Zr191  O622      1.42483      .   S
    Zr23   O622      1.42483      .   S
    Zr191  O623      1.41286      .   S
    Zr31   O623      1.41286      .   S
    Zr192  O624      1.40575      .   S
    Zr9    O624      1.40575  1_556   S
    Zr192  O625      1.57149      .   S
    Zr20   O625      1.57149      .   S
    Zr193  O626      1.40559      .   S
    Zr8    O626      1.40559      .   S
    Zr193  O627      1.57149      .   S
    Zr21   O627      1.57149      .   S
    Zr194  O628      1.40575      .   S
    Zr11   O628      1.40575  1_556   S
    Zr194  O629      1.57150      .   S
    Zr22   O629      1.57150      .   S
    Zr195  O630      1.40559      .   S
    Zr10   O630      1.40559      .   S
    Zr195  O631      1.57150      .   S
    Zr23   O631      1.57150      .   S
    Zr196  O632      1.40575      .   S
    Zr13   O632      1.40575  1_556   S
    Zr196  O633      1.57151  1_655   S
    Zr16   O633      1.57151      .   S
    Zr197  O634      1.40559      .   S
    Zr12   O634      1.40559      .   S
    Zr197  O635      1.57152  1_655   S
    Zr17   O635      1.57152      .   S
    Zr198  O636      1.40575      .   S
    Zr15   O636      1.40575  1_556   S
    Zr198  O637      1.57151  1_655   S
    Zr18   O637      1.57151      .   S
    Zr199  O638      1.40559      .   S
    Zr14   O638      1.40559      .   S
    Zr199  O639      1.57152  1_655   S
    Zr19   O639      1.57152      .   S
    Zr200  O640      1.47399      .   S
    Zr20   O640      1.47399      .   S
    Zr201  O641      1.47399      .   S
    Zr21   O641      1.47399      .   S
    Zr202  O642      1.47400      .   S
    Zr22   O642      1.47400      .   S
    Zr203  O643      1.47400      .   S
    Zr23   O643      1.47400      .   S
    Zr204  O644      1.47402  1_655   S
    Zr16   O644      1.47402      .   S
    Zr205  O645      1.47402  1_655   S
    Zr17   O645      1.47402      .   S
    Zr206  O646      1.47402  1_655   S
    Zr18   O646      1.47402      .   S
    Zr207  O647      1.47402  1_655   S
    Zr19   O647      1.47402      .   S
    Zr208  O648      1.41551      .   S
    Zr9    O648      1.41551  1_556   S
    Zr208  O649      1.60566      .   S
    Zr16   O649      1.60566      .   S
    Zr209  O650      1.41540      .   S
    Zr8    O650      1.41540      .   S
    Zr209  O651      1.60566      .   S
    Zr17   O651      1.60566      .   S
    Zr210  O652      1.41551      .   S
    Zr11   O652      1.41551  1_556   S
    Zr210  O653      1.60566      .   S
    Zr18   O653      1.60566      .   S
    Zr211  O654      1.41540      .   S
    Zr10   O654      1.41540      .   S
    Zr211  O655      1.60567      .   S
    Zr19   O655      1.60567      .   S
    Zr212  O656      1.41551      .   S
    Zr13   O656      1.41551  1_556   S
    Zr212  O657      1.60567      .   S
    Zr20   O657      1.60567      .   S
    Zr213  O658      1.41540      .   S
    Zr12   O658      1.41540      .   S
    Zr213  O659      1.60566      .   S
    Zr21   O659      1.60566      .   S
    Zr214  O660      1.41551      .   S
    Zr15   O660      1.41551  1_556   S
    Zr214  O661      1.60566      .   S
    Zr22   O661      1.60566      .   S
    Zr215  O662      1.41540      .   S
    Zr14   O662      1.41540      .   S
    Zr215  O663      1.60567      .   S
    Zr23   O663      1.60567      .   S
    Zr216  O664      1.45616      .   S
    Zr16   O664      1.45616      .   S
    Zr217  O665      1.45615      .   S
    Zr17   O665      1.45615      .   S
    Zr218  O666      1.45615      .   S
    Zr18   O666      1.45615      .   S
    Zr219  O667      1.45616      .   S
    Zr19   O667      1.45616      .   S
    Zr220  O668      1.45615      .   S
    Zr20   O668      1.45615      .   S
    Zr221  O669      1.45615      .   S
    Zr21   O669      1.45615      .   S
    Zr222  O670      1.45614      .   S
    Zr22   O670      1.45614      .   S
    Zr223  O671      1.45616      .   S
    Zr23   O671      1.45616      .   S
