# CIF file generated by openbabel 2.4.90, see http://openbabel.sf.net
data_I
_chemical_name_common ''
_cell_length_a 12.599
_cell_length_b 17.292
_cell_length_c 19.294
_cell_angle_alpha 65.181
_cell_angle_beta 84.55
_cell_angle_gamma 83.659
_space_group_name_H-M_alt 'P 1'
_space_group_name_Hall 'P 1'
loop_
    _symmetry_equiv_pos_as_xyz
    x,y,z
loop_
    _atom_site_label
    _atom_site_type_symbol
    _atom_site_fract_x
    _atom_site_fract_y
    _atom_site_fract_z
    _atom_site_occupancy
    C0      C    0.35994   0.23529   0.35010   1.000
    C1      C    0.35994   0.23530   0.85014   1.000
    C2      C    0.35994   0.73531   0.35010   1.000
    C3      C    0.35994   0.73531   0.85014   1.000
    C4      C    0.85994   0.23529   0.35010   1.000
    C5      C    0.85993   0.23530   0.85014   1.000
    C6      C    0.85993   0.73531   0.35015   1.000
    C7      C    0.85993   0.73531   0.85014   1.000
    C8      C    0.39296   0.43134   0.46672   1.000
    C9      C    0.39296   0.43134   0.96671   1.000
    C10     C    0.39296   0.93135   0.46672   1.000
    C11     C    0.39296   0.93136   0.96671   1.000
    C12     C    0.89296   0.43134   0.46672   1.000
    C13     C    0.89296   0.43134   0.96671   1.000
    C14     C    0.89296   0.93135   0.46672   1.000
    C15     C    0.89295   0.93136   0.96671   1.000
    C16     C    0.14005   0.26473   0.14984   1.000
    C17     C    0.14005   0.26473   0.64983   1.000
    C18     C    0.14005   0.76474   0.14984   1.000
    C19     C    0.14004   0.76475   0.64983   1.000
    C20     C    0.64005   0.26473   0.14984   1.000
    C21     C    0.64004   0.26473   0.64983   1.000
    C22     C    0.64004   0.76474   0.14984   1.000
    C23     C    0.64004   0.76475   0.64983   1.000
    C24     C    0.10703   0.06868   0.03327   1.000
    C25     C    0.10703   0.06869   0.53326   1.000
    C26     C    0.10703   0.56869   0.03327   1.000
    C27     C    0.10702   0.56870   0.53326   1.000
    C28     C    0.60703   0.06868   0.03327   1.000
    C29     C    0.60702   0.06869   0.53326   1.000
    C30     C    0.60702   0.56869   0.03327   1.000
    C31     C    0.60702   0.56870   0.53326   1.000
    C32     C    0.09118   0.29414   0.41330   1.000
    C33     C    0.09118   0.29414   0.91335   1.000
    C34     C    0.09118   0.79414   0.41337   1.000
    C35     C    0.09118   0.79416   0.91330   1.000
    C36     C    0.59118   0.29413   0.41336   1.000
    C37     C    0.59117   0.29414   0.91335   1.000
    C38     C    0.59118   0.79415   0.41336   1.000
    C39     C    0.59117   0.79416   0.91335   1.000
    C40     C    0.16276   0.34186   0.44080   1.000
    C41     C    0.16276   0.34187   0.94070   1.000
    C42     C    0.16276   0.84189   0.44078   1.000
    C43     C    0.16276   0.84187   0.94079   1.000
    C44     C    0.66276   0.34187   0.44079   1.000
    C45     C    0.66276   0.34187   0.94079   1.000
    C46     C    0.66276   0.84188   0.44079   1.000
    C47     C    0.66275   0.84188   0.94079   1.000
    C48     C    0.07065   0.10927   0.34103   1.000
    C49     C    0.07065   0.10927   0.84103   1.000
    C50     C    0.07065   0.60928   0.34103   1.000
    C51     C    0.07064   0.60928   0.84103   1.000
    C52     C    0.57065   0.10927   0.34103   1.000
    C53     C    0.57064   0.10927   0.84103   1.000
    C54     C    0.57064   0.60928   0.34103   1.000
    C55     C    0.57064   0.60928   0.84103   1.000
    C56     C    0.19465   0.10631   0.34236   1.000
    C57     C    0.19464   0.10631   0.84235   1.000
    C58     C    0.19464   0.60632   0.34236   1.000
    C59     C    0.19464   0.60633   0.84235   1.000
    C60     C    0.69464   0.10631   0.34236   1.000
    C61     C    0.69464   0.10631   0.84235   1.000
    C62     C    0.69464   0.60632   0.34236   1.000
    C63     C    0.69464   0.60633   0.84235   1.000
    C64     C    0.40881   0.20588   0.08663   1.000
    C65     C    0.40881   0.20588   0.58660   1.000
    C66     C    0.40881   0.70591   0.08661   1.000
    C67     C    0.40880   0.70590   0.58662   1.000
    C68     C    0.90881   0.20589   0.08662   1.000
    C69     C    0.90880   0.20589   0.58661   1.000
    C70     C    0.90880   0.70590   0.08663   1.000
    C71     C    0.90880   0.70590   0.58660   1.000
    C72     C    0.33723   0.15816   0.05910   1.000
    C73     C    0.33722   0.15817   0.55917   1.000
    C74     C    0.33723   0.65816   0.05900   1.000
    C75     C    0.33722   0.65818   0.55917   1.000
    C76     C    0.83722   0.15816   0.05919   1.000
    C77     C    0.83722   0.15816   0.55918   1.000
    C78     C    0.83722   0.65818   0.05918   1.000
    C79     C    0.83722   0.65819   0.55917   1.000
    C80     C    0.42934   0.39075   0.15895   1.000
    C81     C    0.42934   0.39076   0.65894   1.000
    C82     C    0.42934   0.89077   0.15895   1.000
    C83     C    0.42933   0.89077   0.65894   1.000
    C84     C    0.92934   0.39075   0.15895   1.000
    C85     C    0.92933   0.39076   0.65894   1.000
    C86     C    0.92933   0.89077   0.15895   1.000
    C87     C    0.92933   0.89077   0.65894   1.000
    C88     C    0.30534   0.39371   0.15762   1.000
    C89     C    0.30534   0.39372   0.65760   1.000
    C90     C    0.30534   0.89373   0.15762   1.000
    C91     C    0.30534   0.89373   0.65760   1.000
    C92     C    0.80534   0.39371   0.15762   1.000
    C93     C    0.80534   0.39372   0.65760   1.000
    C94     C    0.80534   0.89373   0.15762   1.000
    C95     C    0.80533   0.89373   0.65760   1.000
    C96     C    0.49373   0.32138   0.40368   1.000
    C97     C    0.49373   0.32139   0.90367   1.000
    C98     C    0.49373   0.82140   0.40368   1.000
    C99     C    0.49373   0.82140   0.90360   1.000
    C100    C    0.99373   0.32138   0.40367   1.000
    C101    C    0.99372   0.32139   0.90367   1.000
    C102    C    0.99373   0.82140   0.40368   1.000
    C103    C    0.99372   0.82140   0.90360   1.000
    C104    C    0.13482   0.22823   0.40526   1.000
    C105    C    0.13481   0.22823   0.90525   1.000
    C106    C    0.13481   0.72824   0.40526   1.000
    C107    C    0.13481   0.72825   0.90525   1.000
    C108    C    0.63481   0.22822   0.40526   1.000
    C109    C    0.63481   0.22823   0.90525   1.000
    C110    C    0.63481   0.72824   0.40526   1.000
    C111    C    0.63481   0.72825   0.90525   1.000
    C112    C    0.11970   0.37023   0.48870   1.000
    C113    C    0.11969   0.37024   0.98869   1.000
    C114    C    0.11969   0.87025   0.48870   1.000
    C115    C    0.11969   0.87025   0.98870   1.000
    C116    C    0.61969   0.37023   0.48870   1.000
    C117    C    0.61969   0.37024   0.98800   1.000
    C118    C    0.61969   0.87025   0.48870   1.000
    C119    C    0.61969   0.87025   0.98870   1.000
    C120    C    0.25974   0.34690   0.41563   1.000
    C121    C    0.25973   0.34690   0.91560   1.000
    C122    C    0.25974   0.84691   0.41563   1.000
    C123    C    0.25973   0.84691   0.91563   1.000
    C124    C    0.75974   0.34690   0.41563   1.000
    C125    C    0.75973   0.34690   0.91560   1.000
    C126    C    0.75973   0.84691   0.41563   1.000
    C127    C    0.75973   0.84692   0.91563   1.000
    C128    C    0.01841   0.06997   0.40440   1.000
    C129    C    0.01841   0.06997   0.90400   1.000
    C130    C    0.01841   0.56998   0.40440   1.000
    C131    C    0.01840   0.56999   0.90400   1.000
    C132    C    0.51841   0.06997   0.40440   1.000
    C133    C    0.51840   0.06997   0.90400   1.000
    C134    C    0.51841   0.56998   0.40440   1.000
    C135    C    0.51840   0.56999   0.90400   1.000
    C136    C    0.02812   0.15528   0.27887   1.000
    C137    C    0.02811   0.15528   0.77886   1.000
    C138    C    0.02811   0.65529   0.27887   1.000
    C139    C    0.02811   0.65530   0.77886   1.000
    C140    C    0.52811   0.15528   0.27887   1.000
    C141    C    0.52811   0.15528   0.77886   1.000
    C142    C    0.52811   0.65529   0.27887   1.000
    C143    C    0.52811   0.65530   0.77886   1.000
    C144    C    0.23688   0.06438   0.40667   1.000
    C145    C    0.23688   0.06439   0.90666   1.000
    C146    C    0.23688   0.56439   0.40667   1.000
    C147    C    0.23688   0.56440   0.90666   1.000
    C148    C    0.73688   0.06438   0.40667   1.000
    C149    C    0.73687   0.06439   0.90666   1.000
    C150    C    0.73688   0.56439   0.40667   1.000
    C151    C    0.73687   0.56440   0.90666   1.000
    C152    C    0.24472   0.15090   0.28106   1.000
    C153    C    0.24472   0.15091   0.78105   1.000
    C154    C    0.24472   0.65092   0.28106   1.000
    C155    C    0.24471   0.65092   0.78105   1.000
    C156    C    0.74472   0.15090   0.28106   1.000
    C157    C    0.74471   0.15091   0.78105   1.000
    C158    C    0.74471   0.65092   0.28106   1.000
    C159    C    0.74471   0.65092   0.78105   1.000
    C160    C    0.00626   0.17863   0.09631   1.000
    C161    C    0.00626   0.17864   0.59630   1.000
    C162    C    0.00626   0.67865   0.09631   1.000
    C163    C    0.00625   0.67865   0.59630   1.000
    C164    C    0.50626   0.17863   0.09631   1.000
    C165    C    0.50625   0.17864   0.59630   1.000
    C166    C    0.50625   0.67865   0.09630   1.000
    C167    C    0.50625   0.67865   0.59630   1.000
    C168    C    0.36517   0.27179   0.09472   1.000
    C169    C    0.36517   0.27179   0.59470   1.000
    C170    C    0.36517   0.77181   0.09472   1.000
    C171    C    0.36517   0.77181   0.59472   1.000
    C172    C    0.86517   0.27179   0.09472   1.000
    C173    C    0.86517   0.27180   0.59471   1.000
    C174    C    0.86517   0.77181   0.09472   1.000
    C175    C    0.86517   0.77181   0.59472   1.000
    C176    C    0.38029   0.12979   0.01128   1.000
    C177    C    0.38029   0.12979   0.51127   1.000
    C178    C    0.38029   0.62980   0.01128   1.000
    C179    C    0.38029   0.62981   0.51127   1.000
    C180    C    0.88029   0.12979   0.01128   1.000
    C181    C    0.88029   0.12979   0.51127   1.000
    C182    C    0.88029   0.62980   0.01128   1.000
    C183    C    0.88028   0.62981   0.51127   1.000
    C184    C    0.24025   0.15312   0.08435   1.000
    C185    C    0.24025   0.15313   0.58434   1.000
    C186    C    0.24025   0.65313   0.08435   1.000
    C187    C    0.24025   0.65314   0.58434   1.000
    C188    C    0.74025   0.15312   0.08435   1.000
    C189    C    0.74025   0.15313   0.58434   1.000
    C190    C    0.74025   0.65314   0.08435   1.000
    C191    C    0.74025   0.65314   0.58434   1.000
    C192    C    0.48158   0.43005   0.09558   1.000
    C193    C    0.48158   0.43006   0.59557   1.000
    C194    C    0.48158   0.93007   0.09558   1.000
    C195    C    0.48157   0.93007   0.59557   1.000
    C196    C    0.98158   0.43005   0.09558   1.000
    C197    C    0.98157   0.43006   0.59557   1.000
    C198    C    0.98157   0.93007   0.09558   1.000
    C199    C    0.98157   0.93007   0.59557   1.000
    C200    C    0.47187   0.34474   0.22111   1.000
    C201    C    0.47187   0.34475   0.72110   1.000
    C202    C    0.47187   0.84475   0.22111   1.000
    C203    C    0.47187   0.84476   0.72110   1.000
    C204    C    0.97187   0.34474   0.22111   1.000
    C205    C    0.97187   0.34475   0.72110   1.000
    C206    C    0.97187   0.84475   0.22111   1.000
    C207    C    0.97187   0.84476   0.72110   1.000
    C208    C    0.26311   0.43564   0.09331   1.000
    C209    C    0.26311   0.43564   0.59330   1.000
    C210    C    0.26311   0.93565   0.09331   1.000
    C211    C    0.26310   0.93566   0.59330   1.000
    C212    C    0.76311   0.43564   0.09331   1.000
    C213    C    0.76310   0.43564   0.59330   1.000
    C214    C    0.76310   0.93565   0.09331   1.000
    C215    C    0.76310   0.93566   0.59330   1.000
    C216    C    0.25527   0.34912   0.21892   1.000
    C217    C    0.25527   0.34912   0.71891   1.000
    C218    C    0.25527   0.84913   0.21892   1.000
    C219    C    0.25526   0.84914   0.71891   1.000
    C220    C    0.75527   0.34912   0.21892   1.000
    C221    C    0.75526   0.34912   0.71891   1.000
    C222    C    0.75526   0.84913   0.21892   1.000
    C223    C    0.75526   0.84914   0.71891   1.000
    O224    O    0.85876   0.64399   0.03523   1.000
    O225    O    0.85876   0.14397   0.03523   1.000
    O226    O    0.35876   0.64398   0.03514   1.000
    O227    O    0.35876   0.14397   0.03519   1.000
    O228    O    0.68506   0.50217   0.06329   1.000
    O229    O    0.54430   0.49937   0.06442   1.000
    O230    O    0.68506   0.00217   0.06329   1.000
    O231    O    0.54430   0.99937   0.06442   1.000
    O232    O    0.18507   0.50217   0.06329   1.000
    O233    O    0.04430   0.49937   0.06442   1.000
    O234    O    0.18507   0.00217   0.06329   1.000
    O235    O    0.04430   0.99937   0.06442   1.000
    O236    O    0.28874   0.65565   0.07167   1.000
    O237    O    0.37302   0.68204   0.07280   1.000
    O238    O    0.28874   0.15564   0.07172   1.000
    O239    O    0.37302   0.18202   0.07286   1.000
    O240    O    0.78873   0.65566   0.07176   1.000
    O241    O    0.87301   0.68204   0.07290   1.000
    O242    O    0.78874   0.15564   0.07177   1.000
    O243    O    0.87302   0.18202   0.07290   1.000
    O244    O    0.38699   0.73886   0.09067   1.000
    O245    O    0.45753   0.69228   0.09145   1.000
    O246    O    0.88699   0.23884   0.09067   1.000
    O247    O    0.95753   0.19226   0.09146   1.000
    O248    O    0.38699   0.23884   0.09067   1.000
    O249    O    0.45753   0.19226   0.09147   1.000
    O250    O    0.88699   0.73885   0.09067   1.000
    O251    O    0.95753   0.69227   0.09147   1.000
    O252    O    0.28422   0.91469   0.12546   1.000
    O253    O    0.78422   0.41468   0.12546   1.000
    O254    O    0.78422   0.91469   0.12546   1.000
    O255    O    0.28423   0.41468   0.12546   1.000
    O256    O    0.45546   0.91042   0.12726   1.000
    O257    O    0.95546   0.41040   0.12726   1.000
    O258    O    0.95545   0.91042   0.12726   1.000
    O259    O    0.45546   0.41040   0.12726   1.000
    O260    O    0.08408   0.71002   0.21435   1.000
    O261    O    0.19238   0.70783   0.21545   1.000
    O262    O    0.08408   0.21000   0.21435   1.000
    O263    O    0.19239   0.20781   0.21545   1.000
    O264    O    0.58408   0.21000   0.21435   1.000
    O265    O    0.69238   0.20781   0.21545   1.000
    O266    O    0.58408   0.71002   0.21435   1.000
    O267    O    0.69238   0.70783   0.21545   1.000
    O268    O    0.36734   0.39223   0.15829   1.000
    O269    O    0.28031   0.37142   0.18827   1.000
    O270    O    0.36734   0.89225   0.15829   1.000
    O271    O    0.28030   0.87143   0.18827   1.000
    O272    O    0.86734   0.89225   0.15829   1.000
    O273    O    0.78030   0.87143   0.18827   1.000
    O274    O    0.86734   0.39223   0.15829   1.000
    O275    O    0.78030   0.37142   0.18827   1.000
    O276    O    0.95060   0.36775   0.19003   1.000
    O277    O    0.45061   0.36775   0.19003   1.000
    O278    O    0.45060   0.86776   0.19003   1.000
    O279    O    0.95060   0.86776   0.19003   1.000
    O280    O    0.80760   0.79222   0.28453   1.000
    O281    O    0.30760   0.29220   0.28451   1.000
    O282    O    0.80760   0.29220   0.28451   1.000
    O283    O    0.30760   0.79222   0.28451   1.000
    O284    O    0.91590   0.79003   0.28563   1.000
    O285    O    0.91590   0.29002   0.28560   1.000
    O286    O    0.41591   0.79003   0.28560   1.000
    O287    O    0.41591   0.29002   0.28560   1.000
    O288    O    0.54938   0.63229   0.30995   1.000
    O289    O    0.54938   0.13227   0.30995   1.000
    O290    O    0.04938   0.63229   0.30995   1.000
    O291    O    0.04938   0.13227   0.30995   1.000
    O292    O    0.21968   0.12860   0.31171   1.000
    O293    O    0.21968   0.62862   0.31171   1.000
    O294    O    0.71968   0.62862   0.31171   1.000
    O295    O    0.71968   0.12860   0.31171   1.000
    O296    O    0.13265   0.10779   0.34169   1.000
    O297    O    0.04453   0.08962   0.37271   1.000
    O298    O    0.63264   0.60780   0.34169   1.000
    O299    O    0.54453   0.58963   0.37271   1.000
    O300    O    0.63265   0.10779   0.34169   1.000
    O301    O    0.54453   0.08962   0.37271   1.000
    O302    O    0.13265   0.60780   0.34169   1.000
    O303    O    0.04453   0.58963   0.37271   1.000
    O304    O    0.71576   0.58536   0.37451   1.000
    O305    O    0.71576   0.08534   0.37451   1.000
    O306    O    0.21576   0.58536   0.37451   1.000
    O307    O    0.21576   0.08534   0.37451   1.000
    O308    O    0.04245   0.30776   0.40848   1.000
    O309    O    0.54246   0.30776   0.40852   1.000
    O310    O    0.54245   0.80777   0.40852   1.000
    O311    O    0.04245   0.80777   0.40852   1.000
    O312    O    0.95568   0.00066   0.43556   1.000
    O313    O    0.45568   0.50066   0.43556   1.000
    O314    O    0.45568   0.00066   0.43556   1.000
    O315    O    0.95568   0.50066   0.43556   1.000
    O316    O    0.11300   0.26118   0.40928   1.000
    O317    O    0.11300   0.76119   0.40931   1.000
    O318    O    0.61300   0.26118   0.40931   1.000
    O319    O    0.61299   0.76119   0.40931   1.000
    O320    O    0.81492   0.49787   0.43669   1.000
    O321    O    0.81492   0.99787   0.43669   1.000
    O322    O    0.31492   0.49787   0.43669   1.000
    O323    O    0.31492   0.99787   0.43669   1.000
    O324    O    0.12697   0.31800   0.42705   1.000
    O325    O    0.62697   0.81801   0.42707   1.000
    O326    O    0.62697   0.31800   0.42707   1.000
    O327    O    0.12697   0.81801   0.42707   1.000
    O328    O    0.71125   0.34438   0.42821   1.000
    O329    O    0.21125   0.34438   0.42821   1.000
    O330    O    0.21125   0.84440   0.42820   1.000
    O331    O    0.71125   0.84440   0.42821   1.000
    O332    O    0.14123   0.85607   0.46474   1.000
    O333    O    0.64123   0.35605   0.46474   1.000
    O334    O    0.64122   0.85606   0.46474   1.000
    O335    O    0.14123   0.35605   0.46475   1.000
    O336    O    0.85875   0.64400   0.53522   1.000
    O337    O    0.35876   0.64400   0.53522   1.000
    O338    O    0.35876   0.14398   0.53522   1.000
    O339    O    0.85875   0.14398   0.53522   1.000
    O340    O    0.68506   0.50217   0.56328   1.000
    O341    O    0.54430   0.49938   0.56442   1.000
    O342    O    0.68506   0.00217   0.56328   1.000
    O343    O    0.54430   0.99938   0.56442   1.000
    O344    O    0.18506   0.50217   0.56328   1.000
    O345    O    0.04430   0.49938   0.56442   1.000
    O346    O    0.18506   0.00217   0.56328   1.000
    O347    O    0.04430   0.99938   0.56442   1.000
    O348    O    0.78873   0.65567   0.57175   1.000
    O349    O    0.87301   0.68204   0.57288   1.000
    O350    O    0.28874   0.65566   0.57175   1.000
    O351    O    0.37301   0.68204   0.57289   1.000
    O352    O    0.28874   0.15565   0.57175   1.000
    O353    O    0.37301   0.18203   0.57288   1.000
    O354    O    0.78873   0.15564   0.57176   1.000
    O355    O    0.87301   0.18203   0.57289   1.000
    O356    O    0.88698   0.73885   0.59066   1.000
    O357    O    0.95753   0.69227   0.59145   1.000
    O358    O    0.38699   0.23884   0.59065   1.000
    O359    O    0.45753   0.19226   0.59145   1.000
    O360    O    0.88699   0.23885   0.59066   1.000
    O361    O    0.95753   0.19227   0.59145   1.000
    O362    O    0.38699   0.73886   0.59067   1.000
    O363    O    0.45753   0.69228   0.59146   1.000
    O364    O    0.78422   0.41468   0.62545   1.000
    O365    O    0.28422   0.41468   0.62545   1.000
    O366    O    0.28422   0.91470   0.62545   1.000
    O367    O    0.78422   0.91470   0.62545   1.000
    O368    O    0.45545   0.91042   0.62725   1.000
    O369    O    0.45546   0.41041   0.62725   1.000
    O370    O    0.95545   0.41041   0.62725   1.000
    O371    O    0.95545   0.91042   0.62725   1.000
    O372    O    0.08408   0.21001   0.71435   1.000
    O373    O    0.19238   0.20782   0.71544   1.000
    O374    O    0.08408   0.71002   0.71435   1.000
    O375    O    0.19238   0.70783   0.71544   1.000
    O376    O    0.58408   0.21001   0.71435   1.000
    O377    O    0.69238   0.20782   0.71544   1.000
    O378    O    0.58407   0.71002   0.71435   1.000
    O379    O    0.69238   0.70783   0.71544   1.000
    O380    O    0.36734   0.39224   0.65827   1.000
    O381    O    0.28030   0.37142   0.68825   1.000
    O382    O    0.36734   0.89225   0.65827   1.000
    O383    O    0.28030   0.87144   0.68825   1.000
    O384    O    0.86733   0.39224   0.65827   1.000
    O385    O    0.78030   0.37142   0.68825   1.000
    O386    O    0.86733   0.89225   0.65827   1.000
    O387    O    0.78030   0.87144   0.68825   1.000
    O388    O    0.95060   0.36775   0.69002   1.000
    O389    O    0.95060   0.86777   0.69002   1.000
    O390    O    0.45060   0.86777   0.69002   1.000
    O391    O    0.45060   0.36775   0.69002   1.000
    O392    O    0.30760   0.29221   0.78452   1.000
    O393    O    0.30760   0.79222   0.78452   1.000
    O394    O    0.80760   0.29221   0.78452   1.000
    O395    O    0.80760   0.79222   0.78452   1.000
    O396    O    0.41590   0.29002   0.78562   1.000
    O397    O    0.41590   0.79004   0.78562   1.000
    O398    O    0.91590   0.29002   0.78562   1.000
    O399    O    0.91590   0.79004   0.78562   1.000
    O400    O    0.04938   0.13228   0.80994   1.000
    O401    O    0.04938   0.63229   0.80994   1.000
    O402    O    0.54938   0.13228   0.80994   1.000
    O403    O    0.54937   0.63229   0.80994   1.000
    O404    O    0.71968   0.12861   0.81170   1.000
    O405    O    0.71967   0.62862   0.81170   1.000
    O406    O    0.21968   0.12861   0.81170   1.000
    O407    O    0.21968   0.62862   0.81170   1.000
    O408    O    0.13265   0.10779   0.84169   1.000
    O409    O    0.04453   0.08962   0.87251   1.000
    O410    O    0.13264   0.60781   0.84169   1.000
    O411    O    0.04453   0.58964   0.87251   1.000
    O412    O    0.63264   0.10779   0.84169   1.000
    O413    O    0.54452   0.08962   0.87251   1.000
    O414    O    0.63264   0.60781   0.84169   1.000
    O415    O    0.54452   0.58964   0.87251   1.000
    O416    O    0.21576   0.08535   0.87450   1.000
    O417    O    0.21576   0.58536   0.87450   1.000
    O418    O    0.71576   0.08535   0.87450   1.000
    O419    O    0.71575   0.58536   0.87450   1.000
    O420    O    0.04245   0.80778   0.90845   1.000
    O421    O    0.54245   0.80778   0.90847   1.000
    O422    O    0.04245   0.30776   0.90851   1.000
    O423    O    0.54245   0.30776   0.90851   1.000
    O424    O    0.45568   0.50067   0.93535   1.000
    O425    O    0.45568   0.00067   0.93535   1.000
    O426    O    0.95568   0.50067   0.93535   1.000
    O427    O    0.95568   0.00067   0.93535   1.000
    O428    O    0.61299   0.26119   0.90930   1.000
    O429    O    0.61299   0.76120   0.90930   1.000
    O430    O    0.11299   0.76120   0.90927   1.000
    O431    O    0.11300   0.26118   0.90930   1.000
    O432    O    0.81491   0.49787   0.93668   1.000
    O433    O    0.31492   0.99787   0.93668   1.000
    O434    O    0.31492   0.49787   0.93668   1.000
    O435    O    0.81491   0.99787   0.93668   1.000
    O436    O    0.12697   0.81802   0.92704   1.000
    O437    O    0.12697   0.31800   0.92702   1.000
    O438    O    0.62696   0.81802   0.92707   1.000
    O439    O    0.62696   0.31800   0.92707   1.000
    O440    O    0.71124   0.34438   0.92819   1.000
    O441    O    0.21125   0.34438   0.92815   1.000
    O442    O    0.71124   0.84440   0.92821   1.000
    O443    O    0.21124   0.84439   0.92821   1.000
    O444    O    0.14123   0.35605   0.96469   1.000
    O445    O    0.14122   0.85606   0.96474   1.000
    O446    O    0.64122   0.35605   0.96439   1.000
    O447    O    0.64122   0.85606   0.96474   1.000
    O448    O    0.42684   0.27834   0.37689   1.000
    O449    O    0.44335   0.37636   0.43520   1.000
    O450    O    0.42683   0.27834   0.87690   1.000
    O451    O    0.44334   0.37637   0.93519   1.000
    O452    O    0.42683   0.77835   0.37689   1.000
    O453    O    0.44334   0.87638   0.43520   1.000
    O454    O    0.42683   0.77836   0.87687   1.000
    O455    O    0.44334   0.87638   0.93515   1.000
    O456    O    0.92683   0.27834   0.37688   1.000
    O457    O    0.94334   0.37636   0.43519   1.000
    O458    O    0.92683   0.27834   0.87690   1.000
    O459    O    0.94334   0.37637   0.93519   1.000
    O460    O    0.92683   0.77835   0.37692   1.000
    O461    O    0.94334   0.87638   0.43520   1.000
    O462    O    0.92683   0.77836   0.87687   1.000
    O463    O    0.94334   0.87638   0.93515   1.000
    O464    O    0.24738   0.23176   0.37768   1.000
    O465    O    0.12092   0.14846   0.46926   1.000
    O466    O    0.24738   0.23176   0.87769   1.000
    O467    O    0.12092   0.14846   0.96926   1.000
    O468    O    0.24738   0.73177   0.37768   1.000
    O469    O    0.12092   0.64847   0.46926   1.000
    O470    O    0.24737   0.73178   0.87769   1.000
    O471    O    0.12092   0.64847   0.96926   1.000
    O472    O    0.74738   0.23176   0.37768   1.000
    O473    O    0.62092   0.14846   0.46926   1.000
    O474    O    0.74737   0.23176   0.87769   1.000
    O475    O    0.62092   0.14846   0.96926   1.000
    O476    O    0.74737   0.73177   0.37770   1.000
    O477    O    0.62091   0.64847   0.46926   1.000
    O478    O    0.74737   0.73178   0.87769   1.000
    O479    O    0.62091   0.64847   0.96926   1.000
    O480    O    0.00633   0.40079   0.47771   1.000
    O481    O    0.12987   0.31748   0.56926   1.000
    O482    O    0.00632   0.40079   0.97770   1.000
    O483    O    0.12987   0.31748   0.06926   1.000
    O484    O    0.00633   0.90080   0.47771   1.000
    O485    O    0.12987   0.81750   0.56926   1.000
    O486    O    0.00632   0.90080   0.97770   1.000
    O487    O    0.12987   0.81750   0.06927   1.000
    O488    O    0.50633   0.40079   0.47771   1.000
    O489    O    0.62987   0.31748   0.56926   1.000
    O490    O    0.50632   0.40079   0.97735   1.000
    O491    O    0.62987   0.31748   0.06892   1.000
    O492    O    0.50632   0.90080   0.47771   1.000
    O493    O    0.62987   0.81750   0.56926   1.000
    O494    O    0.50632   0.90080   0.97770   1.000
    O495    O    0.62987   0.81750   0.06927   1.000
    O496    O    0.30984   0.29109   0.38286   1.000
    O497    O    0.32635   0.38912   0.44117   1.000
    O498    O    0.30984   0.29110   0.88287   1.000
    O499    O    0.32635   0.38912   0.94115   1.000
    O500    O    0.30984   0.79111   0.38286   1.000
    O501    O    0.32635   0.88913   0.44117   1.000
    O502    O    0.30983   0.79111   0.88288   1.000
    O503    O    0.32634   0.88914   0.94117   1.000
    O504    O    0.80984   0.29109   0.38286   1.000
    O505    O    0.82635   0.38912   0.44117   1.000
    O506    O    0.80983   0.29110   0.88287   1.000
    O507    O    0.82634   0.38912   0.94115   1.000
    O508    O    0.80983   0.79111   0.38289   1.000
    O509    O    0.82634   0.88913   0.44117   1.000
    O510    O    0.80983   0.79111   0.88288   1.000
    O511    O    0.82634   0.88914   0.94117   1.000
    O512    O    0.93917   0.15263   0.37725   1.000
    O513    O    0.06272   0.06933   0.46883   1.000
    O514    O    0.93917   0.15264   0.87707   1.000
    O515    O    0.06272   0.06933   0.96863   1.000
    O516    O    0.93917   0.65264   0.37727   1.000
    O517    O    0.06272   0.56934   0.46883   1.000
    O518    O    0.93917   0.65265   0.87707   1.000
    O519    O    0.06272   0.56934   0.96863   1.000
    O520    O    0.43917   0.15263   0.37725   1.000
    O521    O    0.56271   0.06933   0.46883   1.000
    O522    O    0.43917   0.15264   0.87707   1.000
    O523    O    0.56271   0.06933   0.96863   1.000
    O524    O    0.43917   0.65264   0.37725   1.000
    O525    O    0.56271   0.56934   0.46883   1.000
    O526    O    0.43917   0.65265   0.87707   1.000
    O527    O    0.56271   0.56934   0.96863   1.000
    O528    O    0.94403   0.19528   0.31449   1.000
    O529    O    0.94402   0.19529   0.81450   1.000
    O530    O    0.94402   0.69530   0.31451   1.000
    O531    O    0.94402   0.69530   0.81450   1.000
    O532    O    0.44403   0.19528   0.31449   1.000
    O533    O    0.44402   0.19529   0.81450   1.000
    O534    O    0.44402   0.69530   0.31449   1.000
    O535    O    0.44402   0.69531   0.81450   1.000
    O536    O    0.29841   0.14984   0.37838   1.000
    O537    O    0.17195   0.06653   0.46996   1.000
    O538    O    0.29841   0.14984   0.87840   1.000
    O539    O    0.17195   0.06653   0.96996   1.000
    O540    O    0.29841   0.64985   0.37838   1.000
    O541    O    0.17195   0.56655   0.46996   1.000
    O542    O    0.29841   0.64986   0.87840   1.000
    O543    O    0.17195   0.56655   0.96996   1.000
    O544    O    0.79841   0.14984   0.37838   1.000
    O545    O    0.67195   0.06653   0.46996   1.000
    O546    O    0.79840   0.14984   0.87840   1.000
    O547    O    0.67195   0.06653   0.96996   1.000
    O548    O    0.79840   0.64985   0.37841   1.000
    O549    O    0.67195   0.56655   0.46996   1.000
    O550    O    0.79840   0.64986   0.87840   1.000
    O551    O    0.67195   0.56655   0.96996   1.000
    O552    O    0.30233   0.19310   0.31558   1.000
    O553    O    0.30233   0.19310   0.81559   1.000
    O554    O    0.30233   0.69311   0.31558   1.000
    O555    O    0.30232   0.69312   0.81559   1.000
    O556    O    0.80233   0.19310   0.31558   1.000
    O557    O    0.80232   0.19310   0.81559   1.000
    O558    O    0.80232   0.69311   0.31560   1.000
    O559    O    0.80232   0.69312   0.81559   1.000
    O560    O    0.07315   0.22168   0.12307   1.000
    O561    O    0.05664   0.12366   0.06479   1.000
    O562    O    0.07315   0.22169   0.62306   1.000
    O563    O    0.05664   0.12366   0.56478   1.000
    O564    O    0.07315   0.72170   0.12307   1.000
    O565    O    0.05664   0.62367   0.06479   1.000
    O566    O    0.07315   0.72170   0.62306   1.000
    O567    O    0.05664   0.62368   0.56478   1.000
    O568    O    0.57315   0.22168   0.12307   1.000
    O569    O    0.55664   0.12366   0.06479   1.000
    O570    O    0.57315   0.22169   0.62306   1.000
    O571    O    0.55664   0.12366   0.56478   1.000
    O572    O    0.57315   0.72170   0.12307   1.000
    O573    O    0.55664   0.62367   0.06478   1.000
    O574    O    0.57315   0.72170   0.62306   1.000
    O575    O    0.55663   0.62368   0.56478   1.000
    O576    O    0.37907   0.35157   0.03071   1.000
    O577    O    0.25261   0.26826   0.12228   1.000
    O578    O    0.37907   0.35157   0.53071   1.000
    O579    O    0.25261   0.26826   0.62226   1.000
    O580    O    0.37906   0.85158   0.03071   1.000
    O581    O    0.25261   0.76828   0.12228   1.000
    O582    O    0.37906   0.85158   0.53072   1.000
    O583    O    0.25261   0.76828   0.62227   1.000
    O584    O    0.87906   0.35157   0.03071   1.000
    O585    O    0.75261   0.26826   0.12228   1.000
    O586    O    0.87906   0.35157   0.53071   1.000
    O587    O    0.75260   0.26827   0.62227   1.000
    O588    O    0.87906   0.85158   0.03071   1.000
    O589    O    0.75261   0.76827   0.12228   1.000
    O590    O    0.87906   0.85158   0.53072   1.000
    O591    O    0.75260   0.76828   0.62227   1.000
    O592    O    0.37012   0.18254   0.93071   1.000
    O593    O    0.49366   0.09923   0.02227   1.000
    O594    O    0.37012   0.18254   0.43068   1.000
    O595    O    0.49366   0.09924   0.52226   1.000
    O596    O    0.37011   0.68256   0.93071   1.000
    O597    O    0.49366   0.59925   0.02227   1.000
    O598    O    0.37011   0.68256   0.43068   1.000
    O599    O    0.49365   0.59925   0.52226   1.000
    O600    O    0.87011   0.18254   0.93071   1.000
    O601    O    0.99366   0.09923   0.02227   1.000
    O602    O    0.87011   0.18254   0.43068   1.000
    O603    O    0.99366   0.09924   0.52226   1.000
    O604    O    0.87011   0.68256   0.93071   1.000
    O605    O    0.99366   0.59925   0.02227   1.000
    O606    O    0.87011   0.68256   0.43071   1.000
    O607    O    0.99365   0.59925   0.52226   1.000
    O608    O    0.19015   0.20893   0.11709   1.000
    O609    O    0.17364   0.11090   0.05881   1.000
    O610    O    0.19015   0.20893   0.61708   1.000
    O611    O    0.17364   0.11091   0.55880   1.000
    O612    O    0.19015   0.70894   0.11709   1.000
    O613    O    0.17364   0.61091   0.05881   1.000
    O614    O    0.19015   0.70895   0.61708   1.000
    O615    O    0.17363   0.61092   0.55880   1.000
    O616    O    0.69015   0.20893   0.11709   1.000
    O617    O    0.67364   0.11090   0.05881   1.000
    O618    O    0.69014   0.20893   0.61708   1.000
    O619    O    0.67363   0.11091   0.55880   1.000
    O620    O    0.69015   0.70894   0.11709   1.000
    O621    O    0.67364   0.61092   0.05881   1.000
    O622    O    0.69014   0.70895   0.61708   1.000
    O623    O    0.67363   0.61092   0.55880   1.000
    O624    O    0.43727   0.43070   0.03114   1.000
    O625    O    0.56081   0.34739   0.12271   1.000
    O626    O    0.43727   0.43070   0.53114   1.000
    O627    O    0.56081   0.34739   0.62270   1.000
    O628    O    0.43727   0.93071   0.03114   1.000
    O629    O    0.56081   0.84740   0.12271   1.000
    O630    O    0.43727   0.93071   0.53114   1.000
    O631    O    0.56081   0.84741   0.62270   1.000
    O632    O    0.93727   0.43070   0.03114   1.000
    O633    O    0.06081   0.34739   0.12271   1.000
    O634    O    0.93727   0.43070   0.53114   1.000
    O635    O    0.06081   0.34739   0.62270   1.000
    O636    O    0.93726   0.93071   0.03114   1.000
    O637    O    0.06081   0.84740   0.12271   1.000
    O638    O    0.93726   0.93071   0.53114   1.000
    O639    O    0.06081   0.84741   0.62270   1.000
    O640    O    0.55596   0.30473   0.18547   1.000
    O641    O    0.55596   0.30474   0.68546   1.000
    O642    O    0.55596   0.80475   0.18547   1.000
    O643    O    0.55595   0.80475   0.68546   1.000
    O644    O    0.05596   0.30473   0.18547   1.000
    O645    O    0.05596   0.30474   0.68546   1.000
    O646    O    0.05596   0.80475   0.18547   1.000
    O647    O    0.05595   0.80475   0.68546   1.000
    O648    O    0.32803   0.43349   0.03001   1.000
    O649    O    0.20158   0.35018   0.12157   1.000
    O650    O    0.32803   0.43349   0.53001   1.000
    O651    O    0.20158   0.35019   0.62156   1.000
    O652    O    0.32803   0.93351   0.03001   1.000
    O653    O    0.20158   0.85020   0.12157   1.000
    O654    O    0.32803   0.93351   0.53001   1.000
    O655    O    0.20157   0.85020   0.62156   1.000
    O656    O    0.82803   0.43349   0.03001   1.000
    O657    O    0.70158   0.35018   0.12157   1.000
    O658    O    0.82803   0.43349   0.53001   1.000
    O659    O    0.70157   0.35019   0.62156   1.000
    O660    O    0.82803   0.93351   0.03001   1.000
    O661    O    0.70157   0.85020   0.12157   1.000
    O662    O    0.82803   0.93351   0.53001   1.000
    O663    O    0.70157   0.85020   0.62156   1.000
    O664    O    0.19766   0.30692   0.18438   1.000
    O665    O    0.19766   0.30693   0.68437   1.000
    O666    O    0.19766   0.80694   0.18438   1.000
    O667    O    0.19765   0.80694   0.68437   1.000
    O668    O    0.69766   0.30692   0.18438   1.000
    O669    O    0.69765   0.30693   0.68437   1.000
    O670    O    0.69765   0.80694   0.18438   1.000
    O671    O    0.69765   0.80694   0.68437   1.000
loop_
    _geom_bond_atom_site_label_1
    _geom_bond_atom_site_label_2
    _geom_bond_distance
    _geom_bond_site_symmetry_2
    _ccdc_geom_bond_type
    C182   O224      0.63559      .   S
    C78    O224      0.63559      .   S
    C180   O225      0.63565      .   S
    C76    O225      0.63565      .   S
    C178   O226      0.63405      .   S
    C74    O226      0.63405      .   S
    C176   O227      0.63493      .   S
    C72    O227      0.63493      .   S
    C30    O228      1.38731      .   S
    C212   O228      1.38731      .   S
    C30    O229      1.39170      .   S
    C192   O229      1.39170      .   S
    C28    O230      1.38715      .   S
    C214   O230      1.38715  1_565   S
    C28    O231      1.39153  1_545   S
    C194   O231      1.39153      .   S
    C26    O232      1.38731      .   S
    C208   O232      1.38731      .   S
    C26    O233      1.39173      .   S
    C196   O233      1.39173  1_655   S
    C24    O234      1.38715      .   S
    C210   O234      1.38715  1_565   S
    C24    O235      1.39156  1_545   S
    C198   O235      1.39156  1_655   S
    C74    O236      0.63520      .   S
    C186   O236      0.63520      .   S
    C74    O237      0.77519      .   S
    C66    O237      0.77519      .   S
    C72    O238      0.63492      .   S
    C184   O238      0.63492      .   S
    C72    O239      0.77457      .   S
    C64    O239      0.77457      .   S
    C78    O240      0.63471      .   S
    C190   O240      0.63471      .   S
    C78    O241      0.77408      .   S
    C70    O241      0.77408      .   S
    C76    O242      0.63470      .   S
    C188   O242      0.63470      .   S
    C76    O243      0.77400      .   S
    C68    O243      0.77400      .   S
    C66    O244      0.63646      .   S
    C170   O244      0.63646      .   S
    C66    O245      0.63367      .   S
    C166   O245      0.63367      .   S
    C68    O246      0.63645      .   S
    C172   O246      0.63645      .   S
    C68    O247      0.63371      .   S
    C160   O247      0.63371  1_455   S
    C64    O248      0.63642      .   S
    C168   O248      0.63642      .   S
    C64    O249      0.63367      .   S
    C164   O249      0.63367      .   S
    C70    O250      0.63642      .   S
    C174   O250      0.63642      .   S
    C70    O251      0.63371      .   S
    C162   O251      0.63371  1_455   S
    C210   O252      0.63901      .   S
    C90    O252      0.63901      .   S
    C212   O253      0.63901      .   S
    C92    O253      0.63901      .   S
    C214   O254      0.63901      .   S
    C94    O254      0.63901      .   S
    C208   O255      0.63901      .   S
    C88    O255      0.63901      .   S
    C194   O256      0.63997      .   S
    C82    O256      0.63997      .   S
    C196   O257      0.63998      .   S
    C84    O257      0.63998      .   S
    C198   O258      0.63998      .   S
    C86    O258      0.63998      .   S
    C192   O259      0.63998      .   S
    C80    O259      0.63998      .   S
    C18    O260      1.39064      .   S
    C138   O260      1.39064      .   S
    C18    O261      1.40539      .   S
    C154   O261      1.40539      .   S
    C16    O262      1.39065      .   S
    C136   O262      1.39065      .   S
    C16    O263      1.40539      .   S
    C152   O263      1.40539      .   S
    C20    O264      1.39064      .   S
    C140   O264      1.39064      .   S
    C20    O265      1.40539      .   S
    C156   O265      1.40539      .   S
    C22    O266      1.39065      .   S
    C142   O266      1.39065      .   S
    C22    O267      1.40539      .   S
    C158   O267      1.40539      .   S
    C88    O268      0.77985      .   S
    C80    O268      0.77985      .   S
    C88    O269      0.63078      .   S
    C216   O269      0.63078      .   S
    C90    O270      0.77986      .   S
    C82    O270      0.77986      .   S
    C90    O271      0.63078      .   S
    C218   O271      0.63078      .   S
    C94    O272      0.77985      .   S
    C86    O272      0.77985      .   S
    C94    O273      0.63079      .   S
    C222   O273      0.63079      .   S
    C92    O274      0.77986      .   S
    C84    O274      0.77986      .   S
    C92    O275      0.63078      .   S
    C220   O275      0.63078      .   S
    C84    O276      0.62957      .   S
    C204   O276      0.62957      .   S
    C80    O277      0.62957      .   S
    C200   O277      0.62957      .   S
    C82    O278      0.62957      .   S
    C202   O278      0.62957      .   S
    C86    O279      0.62957      .   S
    C206   O279      0.62957      .   S
    C222   O280      1.40545      .   S
    C6     O280      1.40545      .   S
    C216   O281      1.40514      .   S
    C0     O281      1.40514      .   S
    C220   O282      1.40514      .   S
    C4     O282      1.40514      .   S
    C218   O283      1.40514      .   S
    C2     O283      1.40514      .   S
    C206   O284      1.39070      .   S
    C6     O284      1.39070      .   S
    C204   O285      1.39043      .   S
    C4     O285      1.39043      .   S
    C202   O286      1.39043      .   S
    C2     O286      1.39043      .   S
    C200   O287      1.39044      .   S
    C0     O287      1.39044      .   S
    C142   O288      0.62957      .   S
    C54    O288      0.62957      .   S
    C140   O289      0.62957      .   S
    C52    O289      0.62957      .   S
    C138   O290      0.62957      .   S
    C50    O290      0.62957      .   S
    C136   O291      0.62957      .   S
    C48    O291      0.62957      .   S
    C152   O292      0.63079      .   S
    C56    O292      0.63079      .   S
    C154   O293      0.63078      .   S
    C58    O293      0.63078      .   S
    C158   O294      0.63079      .   S
    C62    O294      0.63079      .   S
    C156   O295      0.63078      .   S
    C60    O295      0.63078      .   S
    C48    O296      0.77985      .   S
    C56    O296      0.77985      .   S
    C48    O297      0.63998      .   S
    C128   O297      0.63998      .   S
    C54    O298      0.77985      .   S
    C62    O298      0.77985      .   S
    C54    O299      0.63998      .   S
    C134   O299      0.63998      .   S
    C52    O300      0.77985      .   S
    C60    O300      0.77985      .   S
    C52    O301      0.63998      .   S
    C132   O301      0.63998      .   S
    C50    O302      0.77985      .   S
    C58    O302      0.77985      .   S
    C50    O303      0.63998      .   S
    C130   O303      0.63998      .   S
    C62    O304      0.63901      .   S
    C150   O304      0.63901      .   S
    C60    O305      0.63901      .   S
    C148   O305      0.63901      .   S
    C58    O306      0.63901      .   S
    C146   O306      0.63901      .   S
    C56    O307      0.63901      .   S
    C144   O307      0.63901      .   S
    C100   O308      0.63367  1_655   S
    C32    O308      0.63367      .   S
    C96    O309      0.63366      .   S
    C36    O309      0.63366      .   S
    C98    O310      0.63366      .   S
    C38    O310      0.63366      .   S
    C102   O311      0.63370  1_655   S
    C34    O311      0.63370      .   S
    C128   O312      1.39156  1_455   S
    C14    O312      1.39156  1_565   S
    C134   O313      1.39170      .   S
    C8     O313      1.39170      .   S
    C132   O314      1.39153      .   S
    C10    O314      1.39153  1_565   S
    C130   O315      1.39173  1_455   S
    C12    O315      1.39173      .   S
    C104   O316      0.63621      .   S
    C32    O316      0.63621      .   S
    C106   O317      0.63645      .   S
    C34    O317      0.63645      .   S
    C108   O318      0.63644      .   S
    C36    O318      0.63644      .   S
    C110   O319      0.63645      .   S
    C38    O319      0.63645      .   S
    C150   O320      1.38732      .   S
    C12    O320      1.38732      .   S
    C148   O321      1.38716  1_545   S
    C14    O321      1.38716      .   S
    C146   O322      1.38732      .   S
    C8     O322      1.38732      .   S
    C144   O323      1.38715  1_545   S
    C10    O323      1.38715      .   S
    C32    O324      0.77437      .   S
    C40    O324      0.77437      .   S
    C38    O325      0.77403      .   S
    C46    O325      0.77403      .   S
    C36    O326      0.77406      .   S
    C44    O326      0.77406      .   S
    C34    O327      0.77403      .   S
    C42    O327      0.77403      .   S
    C124   O328      0.63471      .   S
    C44    O328      0.63471      .   S
    C120   O329      0.63472      .   S
    C40    O329      0.63472      .   S
    C122   O330      0.63470      .   S
    C42    O330      0.63470      .   S
    C126   O331      0.63470      .   S
    C46    O331      0.63470      .   S
    C42    O332      0.63567      .   S
    C114   O332      0.63567      .   S
    C44    O333      0.63562      .   S
    C116   O333      0.63562      .   S
    C46    O334      0.63564      .   S
    C118   O334      0.63564      .   S
    C40    O335      0.63560      .   S
    C112   O335      0.63560      .   S
    C183   O336      0.63562      .   S
    C79    O336      0.63562      .   S
    C179   O337      0.63559      .   S
    C75    O337      0.63559      .   S
    C177   O338      0.63562      .   S
    C73    O338      0.63562      .   S
    C181   O339      0.63564      .   S
    C77    O339      0.63564      .   S
    C31    O340      1.38732      .   S
    C213   O340      1.38732      .   S
    C31    O341      1.39171      .   S
    C193   O341      1.39171      .   S
    C29    O342      1.38715      .   S
    C215   O342      1.38715  1_565   S
    C29    O343      1.39153  1_545   S
    C195   O343      1.39153      .   S
    C27    O344      1.38732      .   S
    C209   O344      1.38732      .   S
    C27    O345      1.39173      .   S
    C197   O345      1.39173  1_655   S
    C25    O346      1.38715      .   S
    C211   O346      1.38715  1_565   S
    C25    O347      1.39156  1_545   S
    C199   O347      1.39156  1_655   S
    C79    O348      0.63471      .   S
    C191   O348      0.63471      .   S
    C79    O349      0.77388      .   S
    C71    O349      0.77388      .   S
    C75    O350      0.63472      .   S
    C187   O350      0.63472      .   S
    C75    O351      0.77405      .   S
    C67    O351      0.77405      .   S
    C73    O352      0.63470      .   S
    C185   O352      0.63470      .   S
    C73    O353      0.77389      .   S
    C65    O353      0.77389      .   S
    C77    O354      0.63470      .   S
    C189   O354      0.63470      .   S
    C77    O355      0.77403      .   S
    C69    O355      0.77403      .   S
    C71    O356      0.63659      .   S
    C175   O356      0.63659      .   S
    C71    O357      0.63373      .   S
    C163   O357      0.63373  1_455   S
    C65    O358      0.63649      .   S
    C169   O358      0.63649      .   S
    C65    O359      0.63368      .   S
    C165   O359      0.63368      .   S
    C69    O360      0.63645      .   S
    C173   O360      0.63645      .   S
    C69    O361      0.63371      .   S
    C161   O361      0.63371  1_455   S
    C67    O362      0.63648      .   S
    C171   O362      0.63648      .   S
    C67    O363      0.63366      .   S
    C167   O363      0.63366      .   S
    C213   O364      0.63893      .   S
    C93    O364      0.63893      .   S
    C209   O365      0.63893      .   S
    C89    O365      0.63893      .   S
    C211   O366      0.63893      .   S
    C91    O366      0.63893      .   S
    C215   O367      0.63893      .   S
    C95    O367      0.63893      .   S
    C195   O368      0.63998      .   S
    C83    O368      0.63998      .   S
    C193   O369      0.63998      .   S
    C81    O369      0.63998      .   S
    C197   O370      0.63998      .   S
    C85    O370      0.63998      .   S
    C199   O371      0.63998      .   S
    C87    O371      0.63998      .   S
    C17    O372      1.39065      .   S
    C137   O372      1.39065      .   S
    C17    O373      1.40539      .   S
    C153   O373      1.40539      .   S
    C19    O374      1.39064      .   S
    C139   O374      1.39064      .   S
    C19    O375      1.40539      .   S
    C155   O375      1.40539      .   S
    C21    O376      1.39064      .   S
    C141   O376      1.39064      .   S
    C21    O377      1.40539      .   S
    C157   O377      1.40539      .   S
    C23    O378      1.39064      .   S
    C143   O378      1.39064      .   S
    C23    O379      1.40538      .   S
    C159   O379      1.40538      .   S
    C89    O380      0.77986      .   S
    C81    O380      0.77986      .   S
    C89    O381      0.63084      .   S
    C217   O381      0.63084      .   S
    C91    O382      0.77986      .   S
    C83    O382      0.77986      .   S
    C91    O383      0.63085      .   S
    C219   O383      0.63085      .   S
    C93    O384      0.77986      .   S
    C85    O384      0.77986      .   S
    C93    O385      0.63085      .   S
    C221   O385      0.63085      .   S
    C95    O386      0.77987      .   S
    C87    O386      0.77987      .   S
    C95    O387      0.63084      .   S
    C223   O387      0.63084      .   S
    C85    O388      0.62957      .   S
    C205   O388      0.62957      .   S
    C87    O389      0.62957      .   S
    C207   O389      0.62957      .   S
    C83    O390      0.62957      .   S
    C203   O390      0.62957      .   S
    C81    O391      0.62957      .   S
    C201   O391      0.62957      .   S
    C217   O392      1.40545      .   S
    C1     O392      1.40545      .   S
    C219   O393      1.40545      .   S
    C3     O393      1.40545      .   S
    C221   O394      1.40545      .   S
    C5     O394      1.40545      .   S
    C223   O395      1.40545      .   S
    C7     O395      1.40545      .   S
    C201   O396      1.39070      .   S
    C1     O396      1.39070      .   S
    C203   O397      1.39070      .   S
    C3     O397      1.39070      .   S
    C205   O398      1.39070      .   S
    C5     O398      1.39070      .   S
    C207   O399      1.39070      .   S
    C7     O399      1.39070      .   S
    C137   O400      0.62964      .   S
    C49    O400      0.62964      .   S
    C139   O401      0.62964      .   S
    C51    O401      0.62964      .   S
    C141   O402      0.62964      .   S
    C53    O402      0.62964      .   S
    C143   O403      0.62964      .   S
    C55    O403      0.62964      .   S
    C157   O404      0.63079      .   S
    C61    O404      0.63079      .   S
    C159   O405      0.63078      .   S
    C63    O405      0.63078      .   S
    C153   O406      0.63079      .   S
    C57    O406      0.63079      .   S
    C155   O407      0.63079      .   S
    C59    O407      0.63079      .   S
    C49    O408      0.77984      .   S
    C57    O408      0.77984      .   S
    C49    O409      0.63735      .   S
    C129   O409      0.63735      .   S
    C51    O410      0.77984      .   S
    C59    O410      0.77984      .   S
    C51    O411      0.63735      .   S
    C131   O411      0.63735      .   S
    C53    O412      0.77984      .   S
    C61    O412      0.77984      .   S
    C53    O413      0.63735      .   S
    C133   O413      0.63735      .   S
    C55    O414      0.77985      .   S
    C63    O414      0.77985      .   S
    C55    O415      0.63734      .   S
    C135   O415      0.63734      .   S
    C57    O416      0.63901      .   S
    C145   O416      0.63901      .   S
    C59    O417      0.63901      .   S
    C147   O417      0.63901      .   S
    C61    O418      0.63901      .   S
    C149   O418      0.63901      .   S
    C63    O419      0.63901      .   S
    C151   O419      0.63901      .   S
    C103   O420      0.63373  1_655   S
    C35    O420      0.63373      .   S
    C99    O421      0.63372      .   S
    C39    O421      0.63372      .   S
    C101   O422      0.63370  1_655   S
    C33    O422      0.63370      .   S
    C97    O423      0.63367      .   S
    C37    O423      0.63367      .   S
    C135   O424      1.39177      .   S
    C9     O424      1.39177      .   S
    C133   O425      1.39160      .   S
    C11    O425      1.39160  1_565   S
    C131   O426      1.39180  1_455   S
    C13    O426      1.39180      .   S
    C129   O427      1.39163  1_455   S
    C15    O427      1.39163  1_565   S
    C109   O428      0.63646      .   S
    C37    O428      0.63646      .   S
    C111   O429      0.63648      .   S
    C39    O429      0.63648      .   S
    C107   O430      0.63626      .   S
    C35    O430      0.63626      .   S
    C105   O431      0.63645      .   S
    C33    O431      0.63645      .   S
    C151   O432      1.38732      .   S
    C13    O432      1.38732      .   S
    C145   O433      1.38717  1_545   S
    C11    O433      1.38717      .   S
    C147   O434      1.38732      .   S
    C9     O434      1.38732      .   S
    C149   O435      1.38716  1_545   S
    C15    O435      1.38716      .   S
    C35    O436      0.77429      .   S
    C43    O436      0.77429      .   S
    C33    O437      0.77355      .   S
    C41    O437      0.77355      .   S
    C39    O438      0.77400      .   S
    C47    O438      0.77400      .   S
    C37    O439      0.77405      .   S
    C45    O439      0.77405      .   S
    C125   O440      0.63478      .   S
    C45    O440      0.63478      .   S
    C121   O441      0.63455      .   S
    C41    O441      0.63455      .   S
    C127   O442      0.63469      .   S
    C47    O442      0.63469      .   S
    C123   O443      0.63468      .   S
    C43    O443      0.63468      .   S
    C41    O444      0.63630      .   S
    C113   O444      0.63630      .   S
    C43    O445      0.63568      .   S
    C115   O445      0.63568      .   S
    C45    O446      0.62993      .   S
    C117   O446      0.62993      .   S
    C47    O447      0.63568      .   S
    C119   O447      0.63568      .   S
    C96    O448      1.44081      .   S
    C0     O448      1.44081      .   S
    C96    O449      1.39833      .   S
    C8     O449      1.39833      .   S
    C97    O450      1.44049      .   S
    C1     O450      1.44049      .   S
    C97    O451      1.39832      .   S
    C9     O451      1.39832      .   S
    C98    O452      1.44080      .   S
    C2     O452      1.44080      .   S
    C98    O453      1.39833      .   S
    C10    O453      1.39833      .   S
    C99    O454      1.44007      .   S
    C3     O454      1.44007      .   S
    C99    O455      1.39876      .   S
    C11    O455      1.39876      .   S
    C100   O456      1.44073      .   S
    C4     O456      1.44073      .   S
    C100   O457      1.39839      .   S
    C12    O457      1.39839      .   S
    C101   O458      1.44050      .   S
    C5     O458      1.44050      .   S
    C101   O459      1.39832      .   S
    C13    O459      1.39832      .   S
    C102   O460      1.44050      .   S
    C6     O460      1.44050      .   S
    C102   O461      1.39834      .   S
    C14    O461      1.39834      .   S
    C103   O462      1.44007      .   S
    C7     O462      1.44007      .   S
    C103   O463      1.39877      .   S
    C15    O463      1.39877      .   S
    C104   O464      1.46513      .   S
    C0     O464      1.46513      .   S
    C104   O465      1.42846      .   S
    C25    O465      1.42846      .   S
    C105   O466      1.46501      .   S
    C1     O466      1.46501      .   S
    C105   O467      1.42858      .   S
    C24    O467      1.42858  1_554   S
    C106   O468      1.46513      .   S
    C2     O468      1.46513      .   S
    C106   O469      1.42843      .   S
    C27    O469      1.42843      .   S
    C107   O470      1.46501      .   S
    C3     O470      1.46501      .   S
    C107   O471      1.42860      .   S
    C26    O471      1.42860  1_554   S
    C108   O472      1.46513      .   S
    C4     O472      1.46513      .   S
    C108   O473      1.42844      .   S
    C29    O473      1.42844      .   S
    C109   O474      1.46501      .   S
    C5     O474      1.46501      .   S
    C109   O475      1.42859      .   S
    C28    O475      1.42859  1_554   S
    C110   O476      1.46500      .   S
    C6     O476      1.46500      .   S
    C110   O477      1.42845      .   S
    C31    O477      1.42845      .   S
    C111   O478      1.46501      .   S
    C7     O478      1.46501      .   S
    C111   O479      1.42860      .   S
    C30    O479      1.42860  1_554   S
    C112   O480      1.47004      .   S
    C12    O480      1.47004  1_655   S
    C112   O481      1.44444      .   S
    C17    O481      1.44444      .   S
    C113   O482      1.47004      .   S
    C13    O482      1.47004  1_655   S
    C113   O483      1.44461  1_556   S
    C16    O483      1.44461      .   S
    C114   O484      1.47003      .   S
    C14    O484      1.47003  1_655   S
    C114   O485      1.44444      .   S
    C19    O485      1.44444      .   S
    C115   O486      1.47004      .   S
    C15    O486      1.47004  1_655   S
    C115   O487      1.44453  1_556   S
    C18    O487      1.44453      .   S
    C116   O488      1.46999      .   S
    C8     O488      1.46999      .   S
    C116   O489      1.44444      .   S
    C21    O489      1.44444      .   S
    C117   O490      1.46945      .   S
    C9     O490      1.46945      .   S
    C117   O491      1.45007  1_556   S
    C20    O491      1.45007      .   S
    C118   O492      1.47000      .   S
    C10    O492      1.47000      .   S
    C118   O493      1.44444      .   S
    C23    O493      1.44444      .   S
    C119   O494      1.47000      .   S
    C11    O494      1.47000      .   S
    C119   O495      1.44453  1_556   S
    C22    O495      1.44453      .   S
    C120   O496      1.42511      .   S
    C0     O496      1.42511      .   S
    C120   O497      1.41290      .   S
    C8     O497      1.41290      .   S
    C121   O498      1.42466      .   S
    C1     O498      1.42466      .   S
    C121   O499      1.41301      .   S
    C9     O499      1.41301      .   S
    C122   O500      1.42513      .   S
    C2     O500      1.42513      .   S
    C122   O501      1.41286      .   S
    C10    O501      1.41286      .   S
    C123   O502      1.42484      .   S
    C3     O502      1.42484      .   S
    C123   O503      1.41286      .   S
    C11    O503      1.41286      .   S
    C124   O504      1.42512      .   S
    C4     O504      1.42512      .   S
    C124   O505      1.41288      .   S
    C12    O505      1.41288      .   S
    C125   O506      1.42465      .   S
    C5     O506      1.42465      .   S
    C125   O507      1.41302      .   S
    C13    O507      1.41302      .   S
    C126   O508      1.42479      .   S
    C6     O508      1.42479      .   S
    C126   O509      1.41289      .   S
    C14    O509      1.41289      .   S
    C127   O510      1.42484      .   S
    C7     O510      1.42484      .   S
    C127   O511      1.41285      .   S
    C15    O511      1.41285      .   S
    C128   O512      1.57151  1_455   S
    C4     O512      1.57151      .   S
    C128   O513      1.40568      .   S
    C25    O513      1.40568      .   S
    C129   O514      1.57147  1_455   S
    C5     O514      1.57147      .   S
    C129   O515      1.40930      .   S
    C24    O515      1.40930  1_554   S
    C130   O516      1.57152  1_455   S
    C6     O516      1.57152      .   S
    C130   O517      1.40568      .   S
    C27    O517      1.40568      .   S
    C131   O518      1.57147  1_455   S
    C7     O518      1.57147      .   S
    C131   O519      1.40930      .   S
    C26    O519      1.40930  1_554   S
    C132   O520      1.57150      .   S
    C0     O520      1.57150      .   S
    C132   O521      1.40568      .   S
    C29    O521      1.40568      .   S
    C133   O522      1.57145      .   S
    C1     O522      1.57145      .   S
    C133   O523      1.40930      .   S
    C28    O523      1.40930  1_554   S
    C134   O524      1.57149      .   S
    C2     O524      1.57149      .   S
    C134   O525      1.40568      .   S
    C31    O525      1.40568      .   S
    C135   O526      1.57145      .   S
    C3     O526      1.57145      .   S
    C135   O527      1.40930      .   S
    C30    O527      1.40930  1_554   S
    C136   O528      1.47379  1_455   S
    C4     O528      1.47379      .   S
    C137   O529      1.47407  1_455   S
    C5     O529      1.47407      .   S
    C138   O530      1.47408  1_455   S
    C6     O530      1.47408      .   S
    C139   O531      1.47408  1_455   S
    C7     O531      1.47408      .   S
    C140   O532      1.47377      .   S
    C0     O532      1.47377      .   S
    C141   O533      1.47405      .   S
    C1     O533      1.47405      .   S
    C142   O534      1.47376      .   S
    C2     O534      1.47376      .   S
    C143   O535      1.47405      .   S
    C3     O535      1.47405      .   S
    C144   O536      1.60562      .   S
    C0     O536      1.60562      .   S
    C144   O537      1.41548      .   S
    C25    O537      1.41548      .   S
    C145   O538      1.60567      .   S
    C1     O538      1.60567      .   S
    C145   O539      1.41559      .   S
    C24    O539      1.41559  1_554   S
    C146   O540      1.60563      .   S
    C2     O540      1.60563      .   S
    C146   O541      1.41549      .   S
    C27    O541      1.41549      .   S
    C147   O542      1.60567      .   S
    C3     O542      1.60567      .   S
    C147   O543      1.41558      .   S
    C26    O543      1.41558  1_554   S
    C148   O544      1.60562      .   S
    C4     O544      1.60562      .   S
    C148   O545      1.41548      .   S
    C29    O545      1.41548      .   S
    C149   O546      1.60567      .   S
    C5     O546      1.60567      .   S
    C149   O547      1.41559      .   S
    C28    O547      1.41559  1_554   S
    C150   O548      1.60567      .   S
    C6     O548      1.60567      .   S
    C150   O549      1.41549      .   S
    C31    O549      1.41549      .   S
    C151   O550      1.60567      .   S
    C7     O550      1.60567      .   S
    C151   O551      1.41559      .   S
    C30    O551      1.41559  1_554   S
    C152   O552      1.45587      .   S
    C0     O552      1.45587      .   S
    C153   O553      1.45622      .   S
    C1     O553      1.45622      .   S
    C154   O554      1.45588      .   S
    C2     O554      1.45588      .   S
    C155   O555      1.45622      .   S
    C3     O555      1.45622      .   S
    C156   O556      1.45588      .   S
    C4     O556      1.45588      .   S
    C157   O557      1.45622      .   S
    C5     O557      1.45622      .   S
    C158   O558      1.45621      .   S
    C6     O558      1.45621      .   S
    C159   O559      1.45622      .   S
    C7     O559      1.45622      .   S
    C160   O560      1.44050      .   S
    C16    O560      1.44050      .   S
    C160   O561      1.39832      .   S
    C24    O561      1.39832      .   S
    C161   O562      1.44050      .   S
    C17    O562      1.44050      .   S
    C161   O563      1.39832      .   S
    C25    O563      1.39832      .   S
    C162   O564      1.44049      .   S
    C18    O564      1.44049      .   S
    C162   O565      1.39832      .   S
    C26    O565      1.39832      .   S
    C163   O566      1.44049      .   S
    C19    O566      1.44049      .   S
    C163   O567      1.39830      .   S
    C27    O567      1.39830      .   S
    C164   O568      1.44049      .   S
    C20    O568      1.44049      .   S
    C164   O569      1.39832      .   S
    C28    O569      1.39832      .   S
    C165   O570      1.44049      .   S
    C21    O570      1.44049      .   S
    C165   O571      1.39831      .   S
    C29    O571      1.39831      .   S
    C166   O572      1.44056      .   S
    C22    O572      1.44056      .   S
    C166   O573      1.39827      .   S
    C30    O573      1.39827      .   S
    C167   O574      1.44050      .   S
    C23    O574      1.44050      .   S
    C167   O575      1.39830      .   S
    C31    O575      1.39830      .   S
    C168   O576      1.42855      .   S
    C9     O576      1.42855  1_556   S
    C168   O577      1.46503      .   S
    C16    O577      1.46503      .   S
    C169   O578      1.42839      .   S
    C8     O578      1.42839      .   S
    C169   O579      1.46505      .   S
    C17    O579      1.46505      .   S
    C170   O580      1.42853      .   S
    C11    O580      1.42853  1_556   S
    C170   O581      1.46503      .   S
    C18    O581      1.46503      .   S
    C171   O582      1.42847      .   S
    C10    O582      1.42847      .   S
    C171   O583      1.46502      .   S
    C19    O583      1.46502      .   S
    C172   O584      1.42855      .   S
    C13    O584      1.42855  1_556   S
    C172   O585      1.46503      .   S
    C20    O585      1.46503      .   S
    C173   O586      1.42841      .   S
    C12    O586      1.42841      .   S
    C173   O587      1.46504      .   S
    C21    O587      1.46504      .   S
    C174   O588      1.42855      .   S
    C15    O588      1.42855  1_556   S
    C174   O589      1.46503      .   S
    C22    O589      1.46503      .   S
    C175   O590      1.42847      .   S
    C14    O590      1.42847      .   S
    C175   O591      1.46501      .   S
    C23    O591      1.46501      .   S
    C176   O592      1.44453  1_554   S
    C1     O592      1.44453      .   S
    C176   O593      1.47000      .   S
    C28    O593      1.47000      .   S
    C177   O594      1.44475      .   S
    C0     O594      1.44475      .   S
    C177   O595      1.47001      .   S
    C29    O595      1.47001      .   S
    C178   O596      1.44454  1_554   S
    C3     O596      1.44454      .   S
    C178   O597      1.47000      .   S
    C30    O597      1.47000      .   S
    C179   O598      1.44475      .   S
    C2     O598      1.44475      .   S
    C179   O599      1.47000      .   S
    C31    O599      1.47000      .   S
    C180   O600      1.44453  1_554   S
    C5     O600      1.44453      .   S
    C180   O601      1.47004      .   S
    C24    O601      1.47004  1_455   S
    C181   O602      1.44475      .   S
    C4     O602      1.44475      .   S
    C181   O603      1.47004      .   S
    C25    O603      1.47004  1_455   S
    C182   O604      1.44453  1_554   S
    C7     O604      1.44453      .   S
    C182   O605      1.47005      .   S
    C26    O605      1.47005  1_455   S
    C183   O606      1.44436      .   S
    C6     O606      1.44436      .   S
    C183   O607      1.47004      .   S
    C27    O607      1.47004  1_455   S
    C184   O608      1.42485      .   S
    C16    O608      1.42485      .   S
    C184   O609      1.41284      .   S
    C24    O609      1.41284      .   S
    C185   O610      1.42484      .   S
    C17    O610      1.42484      .   S
    C185   O611      1.41286      .   S
    C25    O611      1.41286      .   S
    C186   O612      1.42487      .   S
    C18    O612      1.42487      .   S
    C186   O613      1.41281      .   S
    C26    O613      1.41281      .   S
    C187   O614      1.42483      .   S
    C19    O614      1.42483      .   S
    C187   O615      1.41286      .   S
    C27    O615      1.41286      .   S
    C188   O616      1.42485      .   S
    C20    O616      1.42485      .   S
    C188   O617      1.41283      .   S
    C28    O617      1.41283      .   S
    C189   O618      1.42485      .   S
    C21    O618      1.42485      .   S
    C189   O619      1.41283      .   S
    C29    O619      1.41283      .   S
    C190   O620      1.42485      .   S
    C22    O620      1.42485      .   S
    C190   O621      1.41285      .   S
    C30    O621      1.41285      .   S
    C191   O622      1.42483      .   S
    C23    O622      1.42483      .   S
    C191   O623      1.41286      .   S
    C31    O623      1.41286      .   S
    C192   O624      1.40575      .   S
    C9     O624      1.40575  1_556   S
    C192   O625      1.57149      .   S
    C20    O625      1.57149      .   S
    C193   O626      1.40559      .   S
    C8     O626      1.40559      .   S
    C193   O627      1.57149      .   S
    C21    O627      1.57149      .   S
    C194   O628      1.40575      .   S
    C11    O628      1.40575  1_556   S
    C194   O629      1.57150      .   S
    C22    O629      1.57150      .   S
    C195   O630      1.40559      .   S
    C10    O630      1.40559      .   S
    C195   O631      1.57150      .   S
    C23    O631      1.57150      .   S
    C196   O632      1.40575      .   S
    C13    O632      1.40575  1_556   S
    C196   O633      1.57151  1_655   S
    C16    O633      1.57151      .   S
    C197   O634      1.40559      .   S
    C12    O634      1.40559      .   S
    C197   O635      1.57152  1_655   S
    C17    O635      1.57152      .   S
    C198   O636      1.40575      .   S
    C15    O636      1.40575  1_556   S
    C198   O637      1.57151  1_655   S
    C18    O637      1.57151      .   S
    C199   O638      1.40559      .   S
    C14    O638      1.40559      .   S
    C199   O639      1.57152  1_655   S
    C19    O639      1.57152      .   S
    C200   O640      1.47399      .   S
    C20    O640      1.47399      .   S
    C201   O641      1.47399      .   S
    C21    O641      1.47399      .   S
    C202   O642      1.47400      .   S
    C22    O642      1.47400      .   S
    C203   O643      1.47400      .   S
    C23    O643      1.47400      .   S
    C204   O644      1.47402  1_655   S
    C16    O644      1.47402      .   S
    C205   O645      1.47402  1_655   S
    C17    O645      1.47402      .   S
    C206   O646      1.47402  1_655   S
    C18    O646      1.47402      .   S
    C207   O647      1.47402  1_655   S
    C19    O647      1.47402      .   S
    C208   O648      1.41551      .   S
    C9     O648      1.41551  1_556   S
    C208   O649      1.60566      .   S
    C16    O649      1.60566      .   S
    C209   O650      1.41540      .   S
    C8     O650      1.41540      .   S
    C209   O651      1.60566      .   S
    C17    O651      1.60566      .   S
    C210   O652      1.41551      .   S
    C11    O652      1.41551  1_556   S
    C210   O653      1.60566      .   S
    C18    O653      1.60566      .   S
    C211   O654      1.41540      .   S
    C10    O654      1.41540      .   S
    C211   O655      1.60567      .   S
    C19    O655      1.60567      .   S
    C212   O656      1.41551      .   S
    C13    O656      1.41551  1_556   S
    C212   O657      1.60567      .   S
    C20    O657      1.60567      .   S
    C213   O658      1.41540      .   S
    C12    O658      1.41540      .   S
    C213   O659      1.60566      .   S
    C21    O659      1.60566      .   S
    C214   O660      1.41551      .   S
    C15    O660      1.41551  1_556   S
    C214   O661      1.60566      .   S
    C22    O661      1.60566      .   S
    C215   O662      1.41540      .   S
    C14    O662      1.41540      .   S
    C215   O663      1.60567      .   S
    C23    O663      1.60567      .   S
    C216   O664      1.45616      .   S
    C16    O664      1.45616      .   S
    C217   O665      1.45615      .   S
    C17    O665      1.45615      .   S
    C218   O666      1.45615      .   S
    C18    O666      1.45615      .   S
    C219   O667      1.45616      .   S
    C19    O667      1.45616      .   S
    C220   O668      1.45615      .   S
    C20    O668      1.45615      .   S
    C221   O669      1.45615      .   S
    C21    O669      1.45615      .   S
    C222   O670      1.45614      .   S
    C22    O670      1.45614      .   S
    C223   O671      1.45616      .   S
    C23    O671      1.45616      .   S
