# CIF file generated by openbabel 2.4.90, see http://openbabel.sf.net
data_I
_chemical_name_common ''
_cell_length_a 22.958
_cell_length_b 12.515
_cell_length_c 14.852
_cell_angle_alpha 90
_cell_angle_beta 90
_cell_angle_gamma 90
_space_group_name_H-M_alt 'P 1'
_space_group_name_Hall 'P 1'
loop_
    _symmetry_equiv_pos_as_xyz
    x,y,z
loop_
    _atom_site_label
    _atom_site_type_symbol
    _atom_site_fract_x
    _atom_site_fract_y
    _atom_site_fract_z
    _atom_site_occupancy
    H0      H    0.34958   0.84088   0.71273   1.000
    H1      H    0.84957   0.84088   0.71273   1.000
    H2      H    0.45743   0.83246   0.71213   1.000
    H3      H    0.95742   0.83246   0.71212   1.000
    H4      H    0.15041   0.15916   0.71273   1.000
    H5      H    0.65040   0.15916   0.71273   1.000
    H6      H    0.04256   0.16758   0.71213   1.000
    H7      H    0.54255   0.16758   0.71213   1.000
    H8      H    0.15041   0.84088   0.78724   1.000
    H9      H    0.65040   0.84088   0.78724   1.000
    H10     H    0.04255   0.83246   0.78785   1.000
    H11     H    0.54255   0.83246   0.78780   1.000
    H12     H    0.34958   0.15916   0.78724   1.000
    H13     H    0.84957   0.15916   0.78724   1.000
    H14     H    0.45743   0.16758   0.78785   1.000
    H15     H    0.95742   0.16758   0.78784   1.000
    H16     H    0.15041   0.15916   0.28725   1.000
    H17     H    0.65040   0.15916   0.28724   1.000
    H18     H    0.04256   0.16758   0.28785   1.000
    H19     H    0.54255   0.16758   0.28785   1.000
    H20     H    0.34958   0.84088   0.28725   1.000
    H21     H    0.84957   0.84087   0.28724   1.000
    H22     H    0.45743   0.83246   0.28785   1.000
    H23     H    0.95742   0.83246   0.28785   1.000
    H24     H    0.34958   0.15916   0.21274   1.000
    H25     H    0.84957   0.15916   0.21270   1.000
    H26     H    0.45743   0.16758   0.21213   1.000
    H27     H    0.95743   0.16758   0.21213   1.000
    H28     H    0.15041   0.84087   0.21274   1.000
    H29     H    0.65040   0.84088   0.21273   1.000
    H30     H    0.04256   0.83246   0.21213   1.000
    H31     H    0.54255   0.83246   0.21213   1.000
    C32     C    0.37549   0.91091   0.72990   1.000
    C33     C    0.87549   0.91091   0.72999   1.000
    C34     C    0.43597   0.90722   0.72972   1.000
    C35     C    0.93597   0.90722   0.72971   1.000
    C36     C    0.12449   0.08912   0.72999   1.000
    C37     C    0.62448   0.08913   0.72999   1.000
    C38     C    0.06402   0.09282   0.72972   1.000
    C39     C    0.56401   0.09282   0.72970   1.000
    C40     C    0.12449   0.91091   0.76998   1.000
    C41     C    0.62448   0.91091   0.76990   1.000
    C42     C    0.06401   0.90722   0.77026   1.000
    C43     C    0.56400   0.90722   0.77020   1.000
    C44     C    0.37550   0.08913   0.76998   1.000
    C45     C    0.87549   0.08912   0.76998   1.000
    C46     C    0.43598   0.09282   0.77026   1.000
    C47     C    0.93597   0.09282   0.77025   1.000
    C48     C    0.12449   0.08912   0.26999   1.000
    C49     C    0.62449   0.08913   0.26998   1.000
    C50     C    0.06402   0.09282   0.27026   1.000
    C51     C    0.56401   0.09282   0.27026   1.000
    C52     C    0.37550   0.91091   0.26999   1.000
    C53     C    0.87549   0.91091   0.26999   1.000
    C54     C    0.43597   0.90722   0.27026   1.000
    C55     C    0.93597   0.90722   0.27026   1.000
    C56     C    0.37550   0.08913   0.23000   1.000
    C57     C    0.87549   0.08912   0.22999   1.000
    C58     C    0.43598   0.09282   0.22972   1.000
    C59     C    0.93597   0.09282   0.22972   1.000
    C60     C    0.12449   0.91091   0.22999   1.000
    C61     C    0.62448   0.91091   0.22999   1.000
    C62     C    0.06401   0.90722   0.22972   1.000
    C63     C    0.56400   0.90722   0.22972   1.000
    C64     C    0.46777   0.00000   0.74998   1.000
    C65     C    0.96776   0.00000   0.74999   1.000
    C66     C    0.03222   0.00000   0.74998   1.000
    C67     C    0.53221   0.00000   0.74999   1.000
    C68     C    0.03222   0.00000   0.20000   1.000
    C69     C    0.53221   0.00000   0.24998   1.000
    C70     C    0.46777   0.00000   0.25000   1.000
    C71     C    0.96776   0.00000   0.24999   1.000
    C72     C    0.28927   0.80385   0.00000   1.000
    C73     C    0.78926   0.80385   0.00000   1.000
    C74     C    0.21073   0.19618   0.00000   1.000
    C75     C    0.71072   0.19619   0.00000   1.000
    C76     C    0.21073   0.80385   0.49999   1.000
    C77     C    0.71072   0.80385   0.49999   1.000
    C78     C    0.28926   0.19619   0.49999   1.000
    C79     C    0.78925   0.19619   0.49999   1.000
    N80     N    0.34519   0.00000   0.74999   1.000
    N81     N    0.84519   0.00001   0.74997   1.000
    N82     N    0.15480   0.00000   0.70000   1.000
    N83     N    0.65479   0.00000   0.74998   1.000
    N84     N    0.15480   0.00000   0.24990   1.000
    N85     N    0.65479   1.00000   0.25000   1.000
    N86     N    0.34519   1.00000   0.24998   1.000
    N87     N    0.84519   0.00000   0.25000   1.000
loop_
    _geom_bond_atom_site_label_1
    _geom_bond_atom_site_label_2
    _geom_bond_distance
    _geom_bond_site_symmetry_2
    _ccdc_geom_bond_type
    C68    C62       1.44078  1_545   S
    C68    C71       1.65569  1_455   S
    C68    C50       1.72366      .   S
    H26    C58       1.08923      .   S
    H27    C59       1.08923      .   S
    H30    C62       1.08922      .   S
    H31    C63       1.08922      .   S
    H25    C57       1.09008      .   S
    H29    C61       1.08997      .   S
    H24    C56       1.08996      .   S
    H28    C60       1.08994      .   S
    C58    C56       1.38925      .   S
    C58    C70       1.40453      .   S
    C59    C57       1.38925      .   S
    C59    C71       1.40455      .   S
    C62    C60       1.38925      .   S
    C63    C61       1.38928      .   S
    C63    C69       1.40416  1_565   S
    C57    N87       1.34769      .   S
    C60    N84       1.34707  1_565   S
    C61    N85       1.34731      .   S
    C56    N86       1.34767  1_545   S
    N84    C48       1.34796      .   S
    C69    C70       1.47948      .   S
    C69    C51       1.40451      .   S
    N86    C52       1.34730      .   S
    C71    C55       1.40419  1_545   S
    N87    C53       1.34731  1_545   S
    C70    C54       1.40419  1_545   S
    N85    C49       1.34765  1_565   S
    C49    C51       1.38927      .   S
    C49    H17       1.08996      .   S
    C48    C50       1.38925      .   S
    C48    H16       1.08997      .   S
    C52    C54       1.38925      .   S
    C52    H20       1.08996      .   S
    C53    C55       1.38925      .   S
    C53    H21       1.08994      .   S
    C51    H19       1.08923      .   S
    C50    H18       1.08922      .   S
    C54    H22       1.08923      .   S
    C55    H23       1.08923      .   S
    N82    C36       1.38791      .   S
    N82    C40       1.67554  1_545   S
    H3     C35       1.08922      .   S
    H6     C38       1.08922      .   S
    H7     C39       1.08916      .   S
    H2     C34       1.08922      .   S
    H4     C36       1.08997      .   S
    H5     C37       1.08996      .   S
    H1     C33       1.08996      .   S
    H0     C32       1.08966      .   S
    C39    C37       1.38925      .   S
    C39    C67       1.40458      .   S
    C35    C33       1.38925      .   S
    C35    C65       1.40418  1_565   S
    C34    C32       1.38925      .   S
    C34    C64       1.40417  1_565   S
    C38    C36       1.38925      .   S
    C38    C66       1.40455      .   S
    C32    N80       1.34757  1_565   S
    C33    N81       1.34730  1_565   S
    C37    N83       1.34768      .   S
    N81    C45       1.34765      .   S
    N83    C41       1.34705  1_545   S
    C64    C67       1.47948      .   S
    C64    C46       1.40453      .   S
    C66    C65       1.47990  1_455   S
    C66    C42       1.40416  1_545   S
    N80    C44       1.34768      .   S
    C65    C47       1.40453      .   S
    C67    C43       1.40400  1_545   S
    C41    C43       1.38925      .   S
    C41    H9        1.09025      .   S
    C45    C47       1.38925      .   S
    C45    H13       1.08998      .   S
    C44    C46       1.38925      .   S
    C44    H12       1.08998      .   S
    C40    C42       1.38927      .   S
    C40    H8        1.08995      .   S
    C43    H11       1.08925      .   S
    C47    H15       1.08922      .   S
    C42    H10       1.08922      .   S
    C46    H14       1.08922      .   S
