# CIF file generated by openbabel 2.4.90, see http://openbabel.sf.net
data_I
_chemical_name_common ''
_cell_length_a 22.958
_cell_length_b 12.515
_cell_length_c 14.852
_cell_angle_alpha 90
_cell_angle_beta 90
_cell_angle_gamma 90
_space_group_name_H-M_alt 'P 1'
_space_group_name_Hall 'P 1'
loop_
    _symmetry_equiv_pos_as_xyz
    x,y,z
loop_
    _atom_site_label
    _atom_site_type_symbol
    _atom_site_fract_x
    _atom_site_fract_y
    _atom_site_fract_z
    _atom_site_occupancy
    H0      H    0.33956   0.70940   0.85455   1.000
    H1      H    0.83955   0.70940   0.85455   1.000
    H2      H    0.41355   0.56853   0.85434   1.000
    H3      H    0.91354   0.56853   0.85434   1.000
    H4      H    0.16042   0.29064   0.85455   1.000
    H5      H    0.66042   0.29064   0.85455   1.000
    H6      H    0.08644   0.43150   0.85434   1.000
    H7      H    0.58643   0.43150   0.85434   1.000
    H8      H    0.16043   0.70939   0.64542   1.000
    H9      H    0.66042   0.70939   0.64542   1.000
    H10     H    0.08644   0.56853   0.64563   1.000
    H11     H    0.58643   0.56853   0.64563   1.000
    H12     H    0.33956   0.29064   0.64542   1.000
    H13     H    0.83955   0.29064   0.64542   1.000
    H14     H    0.41355   0.43151   0.64563   1.000
    H15     H    0.91354   0.43151   0.64563   1.000
    H16     H    0.16043   0.29064   0.14543   1.000
    H17     H    0.66042   0.29064   0.14543   1.000
    H18     H    0.08644   0.43150   0.14564   1.000
    H19     H    0.58643   0.43150   0.14564   1.000
    H20     H    0.33956   0.70940   0.14543   1.000
    H21     H    0.83955   0.70940   0.14543   1.000
    H22     H    0.41355   0.56853   0.14564   1.000
    H23     H    0.91354   0.56853   0.14564   1.000
    H24     H    0.33956   0.29064   0.35456   1.000
    H25     H    0.83955   0.29064   0.35456   1.000
    H26     H    0.41355   0.43151   0.35434   1.000
    H27     H    0.91354   0.43151   0.35434   1.000
    H28     H    0.16043   0.70939   0.35456   1.000
    H29     H    0.66042   0.70939   0.35456   1.000
    H30     H    0.08644   0.56853   0.35434   1.000
    H31     H    0.58643   0.56853   0.35434   1.000
    C32     C    0.26710   0.84521   0.92020   1.000
    C33     C    0.76709   0.84521   0.92020   1.000
    C34     C    0.35582   0.67903   0.91855   1.000
    C35     C    0.85581   0.67903   0.91855   1.000
    C36     C    0.39762   0.59905   0.91850   1.000
    C37     C    0.89761   0.59905   0.91850   1.000
    C38     C    0.46231   0.40447   0.92017   1.000
    C39     C    0.96230   0.40447   0.92017   1.000
    C40     C    0.23289   0.15482   0.92020   1.000
    C41     C    0.73288   0.15482   0.92020   1.000
    C42     C    0.14417   0.32101   0.91855   1.000
    C43     C    0.64416   0.32101   0.91855   1.000
    C44     C    0.10236   0.40098   0.91850   1.000
    C45     C    0.60236   0.40098   0.91850   1.000
    C46     C    0.03768   0.59557   0.92017   1.000
    C47     C    0.53767   0.59557   0.92017   1.000
    C48     C    0.23289   0.84521   0.57976   1.000
    C49     C    0.73288   0.84521   0.57976   1.000
    C50     C    0.14417   0.67902   0.58142   1.000
    C51     C    0.64416   0.67902   0.58142   1.000
    C52     C    0.10237   0.59905   0.58147   1.000
    C53     C    0.60236   0.59905   0.58147   1.000
    C54     C    0.03768   0.40446   0.57980   1.000
    C55     C    0.53767   0.40446   0.57980   1.000
    C56     C    0.83377   0.27924   0.49999   1.000
    C57     C    0.41902   0.44196   0.49999   1.000
    C58     C    0.91901   0.44196   0.49999   1.000
    C59     C    0.46657   0.52688   0.49999   1.000
    C60     C    0.26710   0.15483   0.57976   1.000
    C61     C    0.76709   0.15483   0.57976   1.000
    C62     C    0.35582   0.32101   0.58142   1.000
    C63     C    0.85581   0.32101   0.58142   1.000
    C64     C    0.39762   0.40099   0.58147   1.000
    C65     C    0.89761   0.40099   0.58147   1.000
    C66     C    0.46231   0.59557   0.57900   1.000
    C67     C    0.96230   0.59557   0.57900   1.000
    C68     C    0.23289   0.15482   0.07977   1.000
    C69     C    0.73288   0.15482   0.07977   1.000
    C70     C    0.14417   0.32101   0.08143   1.000
    C71     C    0.64416   0.32101   0.08143   1.000
    C72     C    0.10237   0.40098   0.08140   1.000
    C73     C    0.60236   0.40098   0.08140   1.000
    C74     C    0.03768   0.59557   0.07980   1.000
    C75     C    0.53768   0.59557   0.07980   1.000
    C76     C    0.26710   0.84521   0.07977   1.000
    C77     C    0.76709   0.84521   0.07977   1.000
    C78     C    0.35582   0.67903   0.08143   1.000
    C79     C    0.85581   0.67903   0.08143   1.000
    C80     C    0.39762   0.59905   0.08140   1.000
    C81     C    0.89761   0.59905   0.08140   1.000
    C82     C    0.46231   0.40447   0.07980   1.000
    C83     C    0.96230   0.40447   0.07980   1.000
    C84     C    0.26710   0.15483   0.42021   1.000
    C85     C    0.76709   0.15483   0.42021   1.000
    C86     C    0.35582   0.32101   0.41850   1.000
    C87     C    0.85581   0.32101   0.41850   1.000
    C88     C    0.39762   0.40099   0.41851   1.000
    C89     C    0.89761   0.40099   0.41851   1.000
    C90     C    0.46231   0.59557   0.42018   1.000
    C91     C    0.96230   0.59557   0.42018   1.000
    C92     C    0.23289   0.84521   0.42021   1.000
    C93     C    0.73288   0.84521   0.42021   1.000
    C94     C    0.14417   0.67902   0.41850   1.000
    C95     C    0.64416   0.67902   0.41850   1.000
    C96     C    0.10237   0.59905   0.41851   1.000
    C97     C    0.60236   0.59905   0.41851   1.000
    C98     C    0.03768   0.40446   0.42018   1.000
    C99     C    0.53767   0.40446   0.42018   1.000
    C100    C    0.33378   0.72080   0.99998   1.000
    C101    C    0.83377   0.72080   0.99998   1.000
    C102    C    0.41902   0.55808   0.00000   1.000
    C103    C    0.91901   0.55808   0.99998   1.000
    C104    C    0.46656   0.47316   0.99998   1.000
    C105    C    0.96656   0.47316   0.00000   1.000
    C106    C    0.16621   0.27924   0.00000   1.000
    C107    C    0.66620   0.27924   0.00000   1.000
    C108    C    0.08097   0.44196   0.00000   1.000
    C109    C    0.58096   0.44196   0.99998   1.000
    C110    C    0.03342   0.52688   0.00000   1.000
    C111    C    0.53342   0.52688   0.00000   1.000
    C112    C    0.16621   0.72079   0.49999   1.000
    C113    C    0.66620   0.72079   0.49999   1.000
    C114    C    0.08097   0.55807   0.49999   1.000
    C115    C    0.58096   0.55807   0.49999   1.000
    C116    C    0.03342   0.47315   0.49999   1.000
    C117    C    0.53341   0.47315   0.49999   1.000
    C118    C    0.33378   0.27924   0.49999   1.000
    C119    C    0.96656   0.52688   0.49999   1.000
    N120    N    0.24839   0.87782   0.85170   1.000
    N121    N    0.74838   0.87782   0.85170   1.000
    N122    N    0.45777   0.35158   0.85596   1.000
    N123    N    0.95777   0.35158   0.85596   1.000
    N124    N    0.25160   0.12221   0.85170   1.000
    N125    N    0.75159   0.12221   0.85170   1.000
    N126    N    0.04221   0.64845   0.85590   1.000
    N127    N    0.54220   0.64845   0.85590   1.000
    N128    N    0.25160   0.87782   0.64826   1.000
    N129    N    0.75159   0.87782   0.64826   1.000
    N130    N    0.04221   0.35158   0.64400   1.000
    N131    N    0.54220   0.35158   0.64400   1.000
    N132    N    0.24839   0.12221   0.64826   1.000
    N133    N    0.74838   0.12221   0.64826   1.000
    N134    N    0.45778   0.64846   0.64400   1.000
    N135    N    0.95777   0.64846   0.64400   1.000
    N136    N    0.25160   0.12221   0.14827   1.000
    N137    N    0.75159   0.12221   0.14827   1.000
    N138    N    0.04221   0.64845   0.14401   1.000
    N139    N    0.54220   0.64845   0.14401   1.000
    N140    N    0.24839   0.87782   0.14827   1.000
    N141    N    0.74838   0.87782   0.14827   1.000
    N142    N    0.45778   0.35158   0.14401   1.000
    N143    N    0.95777   0.35158   0.14401   1.000
    N144    N    0.24839   0.12221   0.35171   1.000
    N145    N    0.74838   0.12221   0.35171   1.000
    N146    N    0.45778   0.64846   0.35597   1.000
    N147    N    0.95777   0.64846   0.35597   1.000
    N148    N    0.25160   0.87782   0.35171   1.000
    N149    N    0.75159   0.87782   0.35171   1.000
    N150    N    0.04221   0.35158   0.35597   1.000
    N151    N    0.54220   0.35158   0.35597   1.000
loop_
    _geom_bond_atom_site_label_1
    _geom_bond_atom_site_label_2
    _geom_bond_distance
    _geom_bond_site_symmetry_2
    _ccdc_geom_bond_type
    C102   C80       1.40206      .   S
    C102   C36       1.40336  1_554   S
    C102   C104      1.52351  1_554   S
    C105   C110      1.67594  1_655   S
    C105   C83       1.46739      .   S
    C105   C39       1.46775  1_554   S
    C105   C103      1.52353  1_554   S
    C106   C70       1.41137      .   S
    C106   C42       1.41164  1_554   S
    C107   C71       1.41137      .   S
    C107   C43       1.41165  1_554   S
    C108   C110      1.52352      .   S
    C108   C72       1.40207      .   S
    C108   C44       1.40333  1_554   S
    C110   C74       1.46739      .   S
    C110   C46       1.46775  1_554   S
    C111   C75       1.46739      .   S
    C111   C47       1.46774  1_554   S
    C111   C104      1.67558  1_554   S
    C111   C109      1.52351  1_554   S
    C68    N136      1.17737      .   S
    C76    N140      1.17737      .   S
    C77    N141      1.17737      .   S
    C69    N137      1.17737      .   S
    C74    N138      1.16546      .   S
    C75    N139      1.16546      .   S
    C83    N143      1.16546      .   S
    C82    N142      1.16546      .   S
    C82    C104      1.46762  1_554   S
    C73    C71       1.38668      .   S
    C73    H19       1.09082      .   S
    C73    C109      1.40233  1_554   S
    C80    C78       1.38668      .   S
    C80    H22       1.09082      .   S
    C81    C79       1.38667      .   S
    C81    H23       1.09082      .   S
    C81    C103      1.40232  1_554   S
    C72    C70       1.38667      .   S
    C72    H18       1.09082      .   S
    C78    H20       1.08960      .   S
    C78    C100      1.41164  1_554   S
    C71    H17       1.08960      .   S
    C70    H16       1.08960      .   S
    C79    H21       1.08961      .   S
    C79    C101      1.41164  1_554   S
    N148   C92       1.17737      .   S
    N144   C84       1.17737      .   S
    N145   C85       1.17737      .   S
    N149   C93       1.17737      .   S
    H26    C88       1.08990      .   S
    H27    C89       1.08990      .   S
    H30    C96       1.08991      .   S
    H31    C97       1.08990      .   S
    H24    C86       1.08882      .   S
    H25    C87       1.08882      .   S
    H28    C94       1.08882      .   S
    H29    C95       1.08883      .   S
    N147   C91       1.16546      .   S
    N150   C98       1.16547      .   S
    N151   C99       1.16546      .   S
    N146   C90       1.16546      .   S
    C86    C88       1.38668      .   S
    C86    C118      1.41214      .   S
    C87    C89       1.38668      .   S
    C87    C56       1.41214      .   S
    C95    C97       1.38668      .   S
    C95    C113      1.41214      .   S
    C94    C96       1.38668      .   S
    C94    C112      1.41213      .   S
    C89    C58       1.40309      .   S
    C97    C115      1.40309      .   S
    C96    C114      1.40309      .   S
    C88    C57       1.40309      .   S
    C99    C117      1.46751      .   S
    C98    C116      1.46751      .   S
    C90    C59       1.46751      .   S
    C91    C119      1.46750      .   S
    C58    C119      1.52351      .   S
    C58    C65       1.40310      .   S
    C112   C50       1.41137      .   S
    C118   C62       1.41138      .   S
    C56    C63       1.41138      .   S
    C113   C51       1.41138      .   S
    C114   C116      1.52353      .   S
    C114   C52       1.40309      .   S
    C57    C59       1.52351      .   S
    C57    C64       1.40309      .   S
    C59    C117      1.67555      .   S
    C59    C66       1.45793      .   S
    C119   C116      1.67594  1_655   S
    C119   C67       1.45793      .   S
    C117   C115      1.52351      .   S
    C117   C55       1.46751      .   S
    C116   C54       1.46750      .   S
    C115   C53       1.40309      .   S
    C67    N135      1.17508      .   S
    C66    N134      1.17508      .   S
    C48    N128      1.17737      .   S
    C49    N129      1.17737      .   S
    C60    N132      1.17737      .   S
    C61    N133      1.17738      .   S
    C55    N131      1.16534      .   S
    C54    N130      1.16534      .   S
    C63    C65       1.38667      .   S
    C63    H13       1.08960      .   S
    C62    C64       1.38668      .   S
    C62    H12       1.08960      .   S
    C51    C53       1.38668      .   S
    C51    H9        1.08960      .   S
    C50    C52       1.38667      .   S
    C50    H8        1.08960      .   S
    C64    H14       1.08977      .   S
    C65    H15       1.08978      .   S
    C52    H10       1.08978      .   S
    C53    H11       1.08977      .   S
    N120   C32       1.17737      .   S
    N121   C33       1.17737      .   S
    N124   C40       1.17737      .   S
    N125   C41       1.17737      .   S
    H2     C36       1.08978      .   S
    H6     C44       1.08978      .   S
    H3     C37       1.08977      .   S
    H7     C45       1.08977      .   S
    H0     C34       1.08960      .   S
    H5     C43       1.08960      .   S
    H4     C42       1.08960      .   S
    H1     C35       1.08960      .   S
    N127   C47       1.16619      .   S
    N126   C46       1.16619      .   S
    N123   C39       1.16546      .   S
    N122   C38       1.16547      .   S
    C44    C42       1.38668      .   S
    C36    C34       1.38667      .   S
    C37    C35       1.38668      .   S
    C37    C103      1.40309      .   S
    C45    C43       1.38668      .   S
    C45    C109      1.40309      .   S
    C34    C100      1.41137      .   S
    C35    C101      1.41137      .   S
    C38    C104      1.46751      .   S
