# CIF file generated by openbabel 2.4.90, see http://openbabel.sf.net
data_I
_chemical_name_common ''
_cell_length_a 22.958
_cell_length_b 12.515
_cell_length_c 14.852
_cell_angle_alpha 90
_cell_angle_beta 90
_cell_angle_gamma 90
_space_group_name_H-M_alt 'P 1'
_space_group_name_Hall 'P 1'
loop_
    _symmetry_equiv_pos_as_xyz
    x,y,z
loop_
    _atom_site_label
    _atom_site_type_symbol
    _atom_site_fract_x
    _atom_site_fract_y
    _atom_site_fract_z
    _atom_site_occupancy
    C0      C    0.24999   0.00000   0.74998   1.000
    C1      C    0.74999   0.00000   0.74998   1.000
    C2      C    0.25000   0.00000   0.24999   1.000
    C3      C    0.74999   0.00000   0.24999   1.000
    C4      C    0.33956   0.70940   0.85455   1.000
    C5      C    0.83955   0.70940   0.85455   1.000
    C6      C    0.41355   0.56853   0.85434   1.000
    C7      C    0.91354   0.56853   0.85434   1.000
    C8      C    0.34958   0.84088   0.71273   1.000
    C9      C    0.84957   0.84088   0.71273   1.000
    C10     C    0.45743   0.83246   0.71213   1.000
    C11     C    0.95742   0.83246   0.71212   1.000
    C12     C    0.16042   0.29064   0.85455   1.000
    C13     C    0.66042   0.29064   0.85455   1.000
    C14     C    0.08644   0.43150   0.85434   1.000
    C15     C    0.58643   0.43150   0.85434   1.000
    C16     C    0.15041   0.15916   0.71273   1.000
    C17     C    0.65040   0.15916   0.71273   1.000
    C18     C    0.04256   0.16758   0.71213   1.000
    C19     C    0.54255   0.16758   0.71213   1.000
    C20     C    0.16043   0.70939   0.64542   1.000
    C21     C    0.66042   0.70939   0.64542   1.000
    C22     C    0.08644   0.56853   0.64563   1.000
    C23     C    0.58643   0.56853   0.64563   1.000
    C24     C    0.15041   0.84088   0.78724   1.000
    C25     C    0.65040   0.84088   0.78724   1.000
    C26     C    0.04255   0.83246   0.78785   1.000
    C27     C    0.54255   0.83246   0.78780   1.000
    C28     C    0.33956   0.29064   0.64542   1.000
    C29     C    0.83955   0.29064   0.64542   1.000
    C30     C    0.41355   0.43151   0.64563   1.000
    C31     C    0.91354   0.43151   0.64563   1.000
    C32     C    0.34958   0.15916   0.78724   1.000
    C33     C    0.84957   0.15916   0.78724   1.000
    C34     C    0.45743   0.16758   0.78785   1.000
    C35     C    0.95742   0.16758   0.78784   1.000
    C36     C    0.16043   0.29064   0.14543   1.000
    C37     C    0.66042   0.29064   0.14543   1.000
    C38     C    0.08644   0.43150   0.14564   1.000
    C39     C    0.58643   0.43150   0.14564   1.000
    C40     C    0.15041   0.15916   0.28725   1.000
    C41     C    0.65040   0.15916   0.28724   1.000
    C42     C    0.04256   0.16758   0.28785   1.000
    C43     C    0.54255   0.16758   0.28785   1.000
    C44     C    0.33956   0.70940   0.14543   1.000
    C45     C    0.83955   0.70940   0.14543   1.000
    C46     C    0.41355   0.56853   0.14564   1.000
    C47     C    0.91354   0.56853   0.14564   1.000
    C48     C    0.34958   0.84088   0.28725   1.000
    C49     C    0.84957   0.84087   0.28724   1.000
    C50     C    0.45743   0.83246   0.28785   1.000
    C51     C    0.95742   0.83246   0.28785   1.000
    C52     C    0.33956   0.29064   0.35456   1.000
    C53     C    0.83955   0.29064   0.35456   1.000
    C54     C    0.41355   0.43151   0.35434   1.000
    C55     C    0.91354   0.43151   0.35434   1.000
    C56     C    0.34958   0.15916   0.21274   1.000
    C57     C    0.84957   0.15916   0.21270   1.000
    C58     C    0.45743   0.16758   0.21213   1.000
    C59     C    0.95743   0.16758   0.21213   1.000
    C60     C    0.16043   0.70939   0.35456   1.000
    C61     C    0.66042   0.70939   0.35456   1.000
    C62     C    0.08644   0.56853   0.35434   1.000
    C63     C    0.58643   0.56853   0.35434   1.000
    C64     C    0.15041   0.84087   0.21274   1.000
    C65     C    0.65040   0.84088   0.21273   1.000
    C66     C    0.04256   0.83246   0.21213   1.000
    C67     C    0.54255   0.83246   0.21213   1.000
    C68     C    0.26710   0.84521   0.92020   1.000
    C69     C    0.76709   0.84521   0.92020   1.000
    C70     C    0.35582   0.67903   0.91855   1.000
    C71     C    0.85581   0.67903   0.91855   1.000
    C72     C    0.39762   0.59905   0.91850   1.000
    C73     C    0.89761   0.59905   0.91850   1.000
    C74     C    0.46231   0.40447   0.92017   1.000
    C75     C    0.96230   0.40447   0.92017   1.000
    C76     C    0.37549   0.91091   0.72990   1.000
    C77     C    0.87549   0.91091   0.72999   1.000
    C78     C    0.43597   0.90722   0.72972   1.000
    C79     C    0.93597   0.90722   0.72971   1.000
    C80     C    0.23289   0.15482   0.92020   1.000
    C81     C    0.73288   0.15482   0.92020   1.000
    C82     C    0.14417   0.32101   0.91855   1.000
    C83     C    0.64416   0.32101   0.91855   1.000
    C84     C    0.10236   0.40098   0.91850   1.000
    C85     C    0.60236   0.40098   0.91850   1.000
    C86     C    0.03768   0.59557   0.92017   1.000
    C87     C    0.53767   0.59557   0.92017   1.000
    C88     C    0.12449   0.08912   0.72999   1.000
    C89     C    0.62448   0.08913   0.72999   1.000
    C90     C    0.06402   0.09282   0.72972   1.000
    C91     C    0.56401   0.09282   0.72970   1.000
    C92     C    0.23289   0.84521   0.57976   1.000
    C93     C    0.73288   0.84521   0.57976   1.000
    C94     C    0.14417   0.67902   0.58142   1.000
    C95     C    0.64416   0.67902   0.58142   1.000
    C96     C    0.10237   0.59905   0.58147   1.000
    C97     C    0.60236   0.59905   0.58147   1.000
    C98     C    0.03768   0.40446   0.57980   1.000
    C99     C    0.53767   0.40446   0.57980   1.000
    C100    C    0.12449   0.91091   0.76998   1.000
    C101    C    0.62448   0.91091   0.76990   1.000
    C102    C    0.06401   0.90722   0.77026   1.000
    C103    C    0.56400   0.90722   0.77020   1.000
    C104    C    0.26710   0.15483   0.57976   1.000
    C105    C    0.76709   0.15483   0.57976   1.000
    C106    C    0.35582   0.32101   0.58142   1.000
    C107    C    0.85581   0.32101   0.58142   1.000
    C108    C    0.39762   0.40099   0.58147   1.000
    C109    C    0.89761   0.40099   0.58147   1.000
    C110    C    0.46231   0.59557   0.57900   1.000
    C111    C    0.96230   0.59557   0.57900   1.000
    C112    C    0.37550   0.08913   0.76998   1.000
    C113    C    0.87549   0.08912   0.76998   1.000
    C114    C    0.43598   0.09282   0.77026   1.000
    C115    C    0.93597   0.09282   0.77025   1.000
    C116    C    0.23289   0.15482   0.07977   1.000
    C117    C    0.73288   0.15482   0.07977   1.000
    C118    C    0.14417   0.32101   0.08143   1.000
    C119    C    0.64416   0.32101   0.08143   1.000
    C120    C    0.10237   0.40098   0.08140   1.000
    C121    C    0.60236   0.40098   0.08140   1.000
    C122    C    0.03768   0.59557   0.07980   1.000
    C123    C    0.53768   0.59557   0.07980   1.000
    C124    C    0.12449   0.08912   0.26999   1.000
    C125    C    0.62449   0.08913   0.26998   1.000
    C126    C    0.06402   0.09282   0.27026   1.000
    C127    C    0.56401   0.09282   0.27026   1.000
    C128    C    0.26710   0.84521   0.07977   1.000
    C129    C    0.76709   0.84521   0.07977   1.000
    C130    C    0.35582   0.67903   0.08143   1.000
    C131    C    0.85581   0.67903   0.08143   1.000
    C132    C    0.39762   0.59905   0.08140   1.000
    C133    C    0.89761   0.59905   0.08140   1.000
    C134    C    0.46231   0.40447   0.07980   1.000
    C135    C    0.96230   0.40447   0.07980   1.000
    C136    C    0.37550   0.91091   0.26999   1.000
    C137    C    0.87549   0.91091   0.26999   1.000
    C138    C    0.43597   0.90722   0.27026   1.000
    C139    C    0.93597   0.90722   0.27026   1.000
    C140    C    0.26710   0.15483   0.42021   1.000
    C141    C    0.76709   0.15483   0.42021   1.000
    C142    C    0.35582   0.32101   0.41850   1.000
    C143    C    0.85581   0.32101   0.41850   1.000
    C144    C    0.39762   0.40099   0.41851   1.000
    C145    C    0.89761   0.40099   0.41851   1.000
    C146    C    0.46231   0.59557   0.42018   1.000
    C147    C    0.96230   0.59557   0.42018   1.000
    C148    C    0.37550   0.08913   0.23000   1.000
    C149    C    0.87549   0.08912   0.22999   1.000
    C150    C    0.43598   0.09282   0.22972   1.000
    C151    C    0.93597   0.09282   0.22972   1.000
    C152    C    0.23289   0.84521   0.42021   1.000
    C153    C    0.73288   0.84521   0.42021   1.000
    C154    C    0.14417   0.67902   0.41850   1.000
    C155    C    0.64416   0.67902   0.41850   1.000
    C156    C    0.10237   0.59905   0.41851   1.000
    C157    C    0.60236   0.59905   0.41851   1.000
    C158    C    0.03768   0.40446   0.42018   1.000
    C159    C    0.53767   0.40446   0.42018   1.000
    C160    C    0.12449   0.91091   0.22999   1.000
    C161    C    0.62448   0.91091   0.22999   1.000
    C162    C    0.06401   0.90722   0.22972   1.000
    C163    C    0.56400   0.90722   0.22972   1.000
    C164    C    0.46777   0.00000   0.74998   1.000
    C165    C    0.96776   0.00000   0.74999   1.000
    C166    C    0.03222   0.00000   0.74998   1.000
    C167    C    0.53221   0.00000   0.74999   1.000
    C168    C    0.03222   0.00000   0.20000   1.000
    C169    C    0.53221   0.00000   0.24998   1.000
    C170    C    0.46777   0.00000   0.25000   1.000
    C171    C    0.96776   0.00000   0.24999   1.000
    C172    C    0.28927   0.80385   0.00000   1.000
    C173    C    0.78926   0.80385   0.00000   1.000
    C174    C    0.33378   0.72080   0.99998   1.000
    C175    C    0.83377   0.72080   0.99998   1.000
    C176    C    0.41902   0.55808   0.00000   1.000
    C177    C    0.91901   0.55808   0.99998   1.000
    C178    C    0.46656   0.47316   0.99998   1.000
    C179    C    0.96656   0.47316   0.00000   1.000
    C180    C    0.21073   0.19618   0.00000   1.000
    C181    C    0.71072   0.19619   0.00000   1.000
    C182    C    0.16621   0.27924   0.00000   1.000
    C183    C    0.66620   0.27924   0.00000   1.000
    C184    C    0.08097   0.44196   0.00000   1.000
    C185    C    0.58096   0.44196   0.99998   1.000
    C186    C    0.03342   0.52688   0.00000   1.000
    C187    C    0.53342   0.52688   0.00000   1.000
    C188    C    0.21073   0.80385   0.49999   1.000
    C189    C    0.71072   0.80385   0.49999   1.000
    C190    C    0.16621   0.72079   0.49999   1.000
    C191    C    0.66620   0.72079   0.49999   1.000
    C192    C    0.08097   0.55807   0.49999   1.000
    C193    C    0.58096   0.55807   0.49999   1.000
    C194    C    0.03342   0.47315   0.49999   1.000
    C195    C    0.53341   0.47315   0.49999   1.000
    C196    C    0.28926   0.19619   0.49999   1.000
    C197    C    0.78925   0.19619   0.49999   1.000
    C198    C    0.33378   0.27924   0.49999   1.000
    C199    C    0.83377   0.27924   0.49999   1.000
    C200    C    0.41902   0.44196   0.49999   1.000
    C201    C    0.91901   0.44196   0.49999   1.000
    C202    C    0.46657   0.52688   0.49999   1.000
    C203    C    0.96656   0.52688   0.49999   1.000
    C204    C    0.24839   0.87782   0.85170   1.000
    C205    C    0.74838   0.87782   0.85170   1.000
    C206    C    0.45777   0.35158   0.85596   1.000
    C207    C    0.95777   0.35158   0.85596   1.000
    C208    C    0.25160   0.12221   0.85170   1.000
    C209    C    0.75159   0.12221   0.85170   1.000
    C210    C    0.04221   0.64845   0.85590   1.000
    C211    C    0.54220   0.64845   0.85590   1.000
    C212    C    0.25160   0.87782   0.64826   1.000
    C213    C    0.75159   0.87782   0.64826   1.000
    C214    C    0.04221   0.35158   0.64400   1.000
    C215    C    0.54220   0.35158   0.64400   1.000
    C216    C    0.24839   0.12221   0.64826   1.000
    C217    C    0.74838   0.12221   0.64826   1.000
    C218    C    0.45778   0.64846   0.64400   1.000
    C219    C    0.95777   0.64846   0.64400   1.000
    C220    C    0.25160   0.12221   0.14827   1.000
    C221    C    0.75159   0.12221   0.14827   1.000
    C222    C    0.04221   0.64845   0.14401   1.000
    C223    C    0.54220   0.64845   0.14401   1.000
    C224    C    0.24839   0.87782   0.14827   1.000
    C225    C    0.74838   0.87782   0.14827   1.000
    C226    C    0.45778   0.35158   0.14401   1.000
    C227    C    0.95777   0.35158   0.14401   1.000
    C228    C    0.24839   0.12221   0.35171   1.000
    C229    C    0.74838   0.12221   0.35171   1.000
    C230    C    0.45778   0.64846   0.35597   1.000
    C231    C    0.95777   0.64846   0.35597   1.000
    C232    C    0.25160   0.87782   0.35171   1.000
    C233    C    0.75159   0.87782   0.35171   1.000
    C234    C    0.04221   0.35158   0.35597   1.000
    C235    C    0.54220   0.35158   0.35597   1.000
    C236    C    0.34519   0.00000   0.74999   1.000
    C237    C    0.84519   0.00001   0.74997   1.000
    C238    C    0.15480   0.00000   0.70000   1.000
    C239    C    0.65479   0.00000   0.74998   1.000
    C240    C    0.15480   0.00000   0.24990   1.000
    C241    C    0.65479   1.00000   0.25000   1.000
    C242    C    0.34519   1.00000   0.24998   1.000
    C243    C    0.84519   0.00000   0.25000   1.000
    O244    O    0.27818   0.82453   0.03989   1.000
    O245    O    0.27818   0.82453   0.96010   1.000
    O246    O    0.31152   0.76232   0.99999   1.000
    O247    O    0.77817   0.82453   0.03989   1.000
    O248    O    0.77817   0.82453   0.96010   1.000
    O249    O    0.81151   0.76232   0.99999   1.000
    O250    O    0.40832   0.57857   0.04070   1.000
    O251    O    0.40832   0.57857   0.95925   1.000
    O252    O    0.44279   0.51562   0.99999   1.000
    O253    O    0.99999   0.50002   0.00000   1.000
    O254    O    0.96443   0.43881   0.03990   1.000
    O255    O    0.96443   0.43881   0.96009   1.000
    O256    O    0.94278   0.51562   0.99999   1.000
    O257    O    0.18847   0.23771   0.00000   1.000
    O258    O    0.22181   0.17550   0.03989   1.000
    O259    O    0.22181   0.17550   0.96010   1.000
    O260    O    0.68846   0.23771   0.00000   1.000
    O261    O    0.72180   0.17550   0.03989   1.000
    O262    O    0.72180   0.17550   0.96010   1.000
    O263    O    0.15519   0.30012   0.04072   1.000
    O264    O    0.15519   0.30012   0.95928   1.000
    O265    O    0.65518   0.30012   0.04072   1.000
    O266    O    0.65518   0.30012   0.95928   1.000
    O267    O    0.05720   0.48442   0.00000   1.000
    O268    O    0.09167   0.42147   0.04070   1.000
    O269    O    0.09167   0.42147   0.95925   1.000
    O270    O    0.03555   0.56122   0.03990   1.000
    O271    O    0.03555   0.56122   0.96009   1.000
    O272    O    0.53555   0.56122   0.03990   1.000
    O273    O    0.53554   0.56122   0.96009   1.000
    O274    O    0.49999   0.50002   0.99999   1.000
    O275    O    0.55719   0.48442   0.99999   1.000
    O276    O    0.24224   0.13852   0.11402   1.000
    O277    O    0.25775   0.86152   0.11402   1.000
    O278    O    0.75774   0.86152   0.11402   1.000
    O279    O    0.74224   0.13852   0.11402   1.000
    O280    O    0.03995   0.62201   0.11191   1.000
    O281    O    0.53994   0.62201   0.11191   1.000
    O282    O    0.96003   0.37802   0.11191   1.000
    O283    O    0.46004   0.37802   0.11191   1.000
    O284    O    0.46444   0.43881   0.03989   1.000
    O285    O    0.62326   0.36099   0.08142   1.000
    O286    O    0.59439   0.41624   0.11352   1.000
    O287    O    0.59166   0.42147   0.04069   1.000
    O288    O    0.37672   0.63904   0.08142   1.000
    O289    O    0.40559   0.58379   0.11352   1.000
    O290    O    0.87671   0.63904   0.08142   1.000
    O291    O    0.90558   0.58379   0.11352   1.000
    O292    O    0.90831   0.57856   0.04069   1.000
    O293    O    0.12327   0.36099   0.08142   1.000
    O294    O    0.09440   0.41624   0.11352   1.000
    O295    O    0.34769   0.69421   0.11343   1.000
    O296    O    0.34480   0.69991   0.04071   1.000
    O297    O    0.65229   0.30582   0.11343   1.000
    O298    O    0.15230   0.30582   0.11343   1.000
    O299    O    0.84768   0.69421   0.11343   1.000
    O300    O    0.84479   0.69991   0.04071   1.000
    O301    O    0.75079   0.06111   0.19913   1.000
    O302    O    0.74918   0.93891   0.19913   1.000
    O303    O    0.24919   0.93891   0.19913   1.000
    O304    O    0.25080   0.06111   0.19913   1.000
    O305    O    0.04812   0.95361   0.21486   1.000
    O306    O    0.99999   0.00000   0.22500   1.000
    O307    O    0.04812   0.04641   0.23513   1.000
    O308    O    0.44670   0.13020   0.22093   1.000
    O309    O    0.94670   0.13020   0.22093   1.000
    O310    O    0.05328   0.86984   0.22093   1.000
    O311    O    0.55327   0.86984   0.22093   1.000
    O312    O    0.86253   0.12414   0.22135   1.000
    O313    O    0.63744   0.87589   0.22136   1.000
    O314    O    0.36254   0.12414   0.22137   1.000
    O315    O    0.13745   0.87589   0.22137   1.000
    O316    O    0.40574   0.09097   0.22986   1.000
    O317    O    0.45187   0.04641   0.23986   1.000
    O318    O    0.90573   0.09097   0.22986   1.000
    O319    O    0.95186   0.04641   0.23986   1.000
    O320    O    0.09425   0.90907   0.22986   1.000
    O321    O    0.59424   0.90907   0.22986   1.000
    O322    O    0.54811   0.95361   0.23985   1.000
    O323    O    0.86034   0.04456   0.24000   1.000
    O324    O    0.13964   0.95546   0.23995   1.000
    O325    O    0.63964   0.95546   0.24000   1.000
    O326    O    0.36035   0.04456   0.23999   1.000
    O327    O    0.20240   0.00000   0.24995   1.000
    O328    O    0.13965   0.04456   0.25995   1.000
    O329    O    0.49999   0.00000   0.24999   1.000
    O330    O    0.54811   0.04641   0.26012   1.000
    O331    O    0.29759   0.00000   0.24999   1.000
    O332    O    0.36034   0.95546   0.25999   1.000
    O333    O    0.95186   0.95361   0.26013   1.000
    O334    O    0.79759   0.00000   0.25000   1.000
    O335    O    0.70239   0.00000   0.25000   1.000
    O336    O    0.74918   0.06111   0.30085   1.000
    O337    O    0.75079   0.93891   0.30085   1.000
    O338    O    0.25080   0.93891   0.30085   1.000
    O339    O    0.24919   0.06111   0.30085   1.000
    O340    O    0.86034   0.95546   0.26000   1.000
    O341    O    0.45187   0.95361   0.26013   1.000
    O342    O    0.63964   0.04456   0.25999   1.000
    O343    O    0.59425   0.09097   0.27012   1.000
    O344    O    0.63744   0.12414   0.27861   1.000
    O345    O    0.09425   0.09097   0.27013   1.000
    O346    O    0.13745   0.12414   0.27862   1.000
    O347    O    0.40573   0.90907   0.27013   1.000
    O348    O    0.36254   0.87590   0.27862   1.000
    O349    O    0.90573   0.90907   0.27013   1.000
    O350    O    0.86253   0.87589   0.27862   1.000
    O351    O    0.55328   0.13020   0.27906   1.000
    O352    O    0.05329   0.13020   0.27906   1.000
    O353    O    0.44670   0.86984   0.27906   1.000
    O354    O    0.94669   0.86984   0.27906   1.000
    O355    O    0.24224   0.86152   0.38596   1.000
    O356    O    0.25774   0.13852   0.38596   1.000
    O357    O    0.75774   0.13852   0.38596   1.000
    O358    O    0.74223   0.86152   0.38596   1.000
    O359    O    0.40559   0.41625   0.38643   1.000
    O360    O    0.90558   0.41625   0.38643   1.000
    O361    O    0.09440   0.58379   0.38643   1.000
    O362    O    0.59439   0.58379   0.38643   1.000
    O363    O    0.34769   0.30583   0.38653   1.000
    O364    O    0.84768   0.30583   0.38653   1.000
    O365    O    0.15230   0.69421   0.38653   1.000
    O366    O    0.65229   0.69421   0.38653   1.000
    O367    O    0.96003   0.62201   0.38808   1.000
    O368    O    0.03995   0.37802   0.38808   1.000
    O369    O    0.53994   0.37802   0.38808   1.000
    O370    O    0.46004   0.62201   0.38808   1.000
    O371    O    0.37672   0.36100   0.41851   1.000
    O372    O    0.34480   0.30013   0.45925   1.000
    O373    O    0.87671   0.36100   0.41851   1.000
    O374    O    0.84479   0.30013   0.45925   1.000
    O375    O    0.62326   0.63904   0.41851   1.000
    O376    O    0.65518   0.69991   0.45925   1.000
    O377    O    0.12327   0.63903   0.41851   1.000
    O378    O    0.15519   0.69991   0.45925   1.000
    O379    O    0.90831   0.42147   0.45925   1.000
    O380    O    0.59166   0.57856   0.45925   1.000
    O381    O    0.09167   0.57856   0.45925   1.000
    O382    O    0.40832   0.42147   0.45925   1.000
    O383    O    0.53554   0.43881   0.46009   1.000
    O384    O    0.03555   0.43881   0.46009   1.000
    O385    O    0.46444   0.56123   0.46009   1.000
    O386    O    0.96443   0.56123   0.46009   1.000
    O387    O    0.27818   0.17551   0.46010   1.000
    O388    O    0.72180   0.82453   0.46010   1.000
    O389    O    0.22181   0.82453   0.46010   1.000
    O390    O    0.77817   0.17551   0.46010   1.000
    O391    O    0.94278   0.48442   0.49999   1.000
    O392    O    0.90831   0.42147   0.54073   1.000
    O393    O    0.68846   0.76232   0.49999   1.000
    O394    O    0.72180   0.82453   0.53988   1.000
    O395    O    0.18847   0.76232   0.49999   1.000
    O396    O    0.15519   0.69991   0.54071   1.000
    O397    O    0.81151   0.23772   0.49999   1.000
    O398    O    0.77817   0.17551   0.53988   1.000
    O399    O    0.31152   0.23772   0.49999   1.000
    O400    O    0.34480   0.30013   0.54071   1.000
    O401    O    0.84479   0.30013   0.54071   1.000
    O402    O    0.65518   0.69991   0.54071   1.000
    O403    O    0.05720   0.51561   0.49999   1.000
    O404    O    0.09167   0.57856   0.54073   1.000
    O405    O    0.44279   0.48442   0.49999   1.000
    O406    O    0.40832   0.42147   0.54073   1.000
    O407    O    0.49999   0.50002   0.49999   1.000
    O408    O    0.46444   0.56123   0.53950   1.000
    O409    O    0.99999   0.50002   0.49999   1.000
    O410    O    0.96443   0.56123   0.53950   1.000
    O411    O    0.27818   0.17551   0.53988   1.000
    O412    O    0.55719   0.51561   0.49999   1.000
    O413    O    0.53554   0.43881   0.53990   1.000
    O414    O    0.03555   0.43881   0.53990   1.000
    O415    O    0.22181   0.82453   0.53988   1.000
    O416    O    0.59166   0.57856   0.54073   1.000
    O417    O    0.96003   0.62201   0.61150   1.000
    O418    O    0.46004   0.62201   0.61150   1.000
    O419    O    0.24224   0.86152   0.61401   1.000
    O420    O    0.74223   0.86152   0.61401   1.000
    O421    O    0.25774   0.13852   0.61401   1.000
    O422    O    0.75774   0.13852   0.61401   1.000
    O423    O    0.53994   0.37802   0.61190   1.000
    O424    O    0.03995   0.37802   0.61190   1.000
    O425    O    0.87671   0.36100   0.58145   1.000
    O426    O    0.84768   0.30583   0.61342   1.000
    O427    O    0.37672   0.36100   0.58145   1.000
    O428    O    0.34769   0.30583   0.61342   1.000
    O429    O    0.62326   0.63904   0.58145   1.000
    O430    O    0.65229   0.69421   0.61342   1.000
    O431    O    0.12327   0.63903   0.58145   1.000
    O432    O    0.15230   0.69421   0.61342   1.000
    O433    O    0.40559   0.41625   0.61355   1.000
    O434    O    0.90558   0.41625   0.61355   1.000
    O435    O    0.09440   0.58379   0.61355   1.000
    O436    O    0.59439   0.58379   0.61355   1.000
    O437    O    0.25080   0.93891   0.69912   1.000
    O438    O    0.75079   0.93891   0.69912   1.000
    O439    O    0.24919   0.06111   0.69912   1.000
    O440    O    0.74918   0.06111   0.69912   1.000
    O441    O    0.13964   0.04456   0.71500   1.000
    O442    O    0.20239   0.00000   0.72499   1.000
    O443    O    0.13964   0.95546   0.73499   1.000
    O444    O    0.94669   0.86984   0.72092   1.000
    O445    O    0.05329   0.13020   0.72093   1.000
    O446    O    0.55328   0.13020   0.72092   1.000
    O447    O    0.44670   0.86984   0.72093   1.000
    O448    O    0.13745   0.12414   0.72136   1.000
    O449    O    0.63744   0.12414   0.72136   1.000
    O450    O    0.86253   0.87589   0.72136   1.000
    O451    O    0.36254   0.87590   0.72132   1.000
    O452    O    0.59424   0.09097   0.72985   1.000
    O453    O    0.54811   0.04641   0.73985   1.000
    O454    O    0.90573   0.90907   0.72985   1.000
    O455    O    0.95186   0.95361   0.73985   1.000
    O456    O    0.40573   0.90907   0.72981   1.000
    O457    O    0.45187   0.95361   0.73985   1.000
    O458    O    0.09425   0.09097   0.72986   1.000
    O459    O    0.04812   0.04641   0.73985   1.000
    O460    O    0.36034   0.95546   0.73995   1.000
    O461    O    0.86034   0.95546   0.73998   1.000
    O462    O    0.63964   0.04456   0.73999   1.000
    O463    O    0.79759   0.00000   0.74998   1.000
    O464    O    0.86034   0.04456   0.75998   1.000
    O465    O    0.70239   0.00000   0.74998   1.000
    O466    O    0.63963   0.95546   0.75994   1.000
    O467    O    0.74918   0.93891   0.80084   1.000
    O468    O    0.75079   0.06111   0.80084   1.000
    O469    O    0.29759   0.00000   0.74999   1.000
    O470    O    0.24919   0.93891   0.80084   1.000
    O471    O    0.25080   0.06111   0.80084   1.000
    O472    O    0.49999   0.00000   0.74999   1.000
    O473    O    0.45187   0.04641   0.76012   1.000
    O474    O    0.99999   0.00000   0.74999   1.000
    O475    O    0.04812   0.95361   0.76012   1.000
    O476    O    0.36035   0.04456   0.75999   1.000
    O477    O    0.95186   0.04641   0.76012   1.000
    O478    O    0.54811   0.95361   0.76010   1.000
    O479    O    0.59424   0.90907   0.77005   1.000
    O480    O    0.63744   0.87589   0.77857   1.000
    O481    O    0.90573   0.09097   0.77012   1.000
    O482    O    0.86253   0.12414   0.77861   1.000
    O483    O    0.40574   0.09097   0.77012   1.000
    O484    O    0.36254   0.12414   0.77861   1.000
    O485    O    0.09425   0.90907   0.77012   1.000
    O486    O    0.13745   0.87589   0.77861   1.000
    O487    O    0.55327   0.86984   0.77900   1.000
    O488    O    0.94669   0.13020   0.77905   1.000
    O489    O    0.05328   0.86984   0.77906   1.000
    O490    O    0.44670   0.13020   0.77906   1.000
    O491    O    0.25774   0.86152   0.88595   1.000
    O492    O    0.75773   0.86152   0.88595   1.000
    O493    O    0.24224   0.13852   0.88595   1.000
    O494    O    0.74223   0.13852   0.88595   1.000
    O495    O    0.40559   0.58379   0.88642   1.000
    O496    O    0.09440   0.41624   0.88642   1.000
    O497    O    0.90558   0.58379   0.88642   1.000
    O498    O    0.59439   0.41624   0.88642   1.000
    O499    O    0.34769   0.69421   0.88655   1.000
    O500    O    0.65229   0.30582   0.88655   1.000
    O501    O    0.15230   0.30582   0.88655   1.000
    O502    O    0.84768   0.69421   0.88655   1.000
    O503    O    0.53994   0.62201   0.88804   1.000
    O504    O    0.03995   0.62201   0.88804   1.000
    O505    O    0.96003   0.37802   0.88807   1.000
    O506    O    0.46004   0.37802   0.88807   1.000
    O507    O    0.12327   0.36099   0.91853   1.000
    O508    O    0.37672   0.63904   0.91853   1.000
    O509    O    0.87671   0.63904   0.91853   1.000
    O510    O    0.90831   0.57856   0.95924   1.000
    O511    O    0.62326   0.36099   0.91853   1.000
    O512    O    0.59166   0.42147   0.95924   1.000
    O513    O    0.34480   0.69991   0.95927   1.000
    O514    O    0.84479   0.69991   0.95927   1.000
    O515    O    0.46443   0.43881   0.96008   1.000
loop_
    _geom_bond_atom_site_label_1
    _geom_bond_atom_site_label_2
    _geom_bond_distance
    _geom_bond_site_symmetry_2
    _ccdc_geom_bond_type
    C172   O244      0.69470      .   S
    C128   O244      0.69470      .   S
    C172   O245      0.69490  1_554   S
    C68    O245      0.69490      .   S
    C172   O246      0.72881  1_554   S
    C174   O246      0.72881      .   S
    C173   O247      0.69470      .   S
    C129   O247      0.69470      .   S
    C173   O248      0.69490  1_554   S
    C69    O248      0.69490      .   S
    C173   O249      0.72881  1_554   S
    C175   O249      0.72881      .   S
    C176   O250      0.70103      .   S
    C132   O250      0.70103      .   S
    C176   O251      0.70168  1_554   S
    C72    O251      0.70168      .   S
    C176   O252      0.76175  1_554   S
    C178   O252      0.76175      .   S
    C179   O253      0.83797      .   S
    C186   O253      0.83797  1_455   S
    C179   O254      0.73370      .   S
    C135   O254      0.73370      .   S
    C179   O255      0.73387  1_554   S
    C75    O255      0.73387      .   S
    C179   O256      0.76177  1_554   S
    C177   O256      0.76177      .   S
    C180   O257      0.72882      .   S
    C182   O257      0.72882      .   S
    C180   O258      0.69470      .   S
    C116   O258      0.69470      .   S
    C180   O259      0.69488  1_554   S
    C80    O259      0.69488      .   S
    C181   O260      0.72882      .   S
    C183   O260      0.72882      .   S
    C181   O261      0.69470      .   S
    C117   O261      0.69470      .   S
    C181   O262      0.69489  1_554   S
    C81    O262      0.69489      .   S
    C182   O263      0.70569      .   S
    C118   O263      0.70569      .   S
    C182   O264      0.70582  1_554   S
    C82    O264      0.70582      .   S
    C183   O265      0.70569      .   S
    C119   O265      0.70569      .   S
    C183   O266      0.70582  1_554   S
    C83    O266      0.70582      .   S
    C184   O267      0.76176      .   S
    C186   O267      0.76176      .   S
    C184   O268      0.70103      .   S
    C120   O268      0.70103      .   S
    C184   O269      0.70167  1_554   S
    C84    O269      0.70167      .   S
    C186   O270      0.73369      .   S
    C122   O270      0.73369      .   S
    C186   O271      0.73388  1_554   S
    C86    O271      0.73388      .   S
    C187   O272      0.73369      .   S
    C123   O272      0.73369      .   S
    C187   O273      0.73387  1_554   S
    C87    O273      0.73387      .   S
    C187   O274      0.83779  1_554   S
    C178   O274      0.83779      .   S
    C187   O275      0.76175  1_554   S
    C185   O275      0.76175      .   S
    C116   O276      0.58868      .   S
    C220   O276      0.58868      .   S
    C128   O277      0.58868      .   S
    C224   O277      0.58868      .   S
    C129   O278      0.58868      .   S
    C225   O278      0.58868      .   S
    C117   O279      0.58868      .   S
    C221   O279      0.58868      .   S
    C122   O280      0.58273      .   S
    C222   O280      0.58273      .   S
    C123   O281      0.58273      .   S
    C223   O281      0.58273      .   S
    C135   O282      0.58273      .   S
    C227   O282      0.58273      .   S
    C134   O283      0.58273      .   S
    C226   O283      0.58273      .   S
    C134   O284      0.73381      .   S
    C178   O284      0.73381  1_556   S
    C121   O285      0.69334      .   S
    C119   O285      0.69334      .   S
    C121   O286      0.54541      .   S
    C39    O286      0.54541      .   S
    C121   O287      0.70117      .   S
    C185   O287      0.70117  1_556   S
    C132   O288      0.69334      .   S
    C130   O288      0.69334      .   S
    C132   O289      0.54541      .   S
    C46    O289      0.54541      .   S
    C133   O290      0.69333      .   S
    C131   O290      0.69333      .   S
    C133   O291      0.54541      .   S
    C47    O291      0.54541      .   S
    C133   O292      0.70116      .   S
    C177   O292      0.70116  1_556   S
    C120   O293      0.69333      .   S
    C118   O293      0.69333      .   S
    C120   O294      0.54541      .   S
    C38    O294      0.54541      .   S
    C130   O295      0.54480      .   S
    C44    O295      0.54480      .   S
    C130   O296      0.70582      .   S
    C174   O296      0.70582  1_556   S
    C119   O297      0.54480      .   S
    C37    O297      0.54480      .   S
    C118   O298      0.54480      .   S
    C36    O298      0.54480      .   S
    C131   O299      0.54480      .   S
    C45    O299      0.54480      .   S
    C131   O300      0.70582      .   S
    C175   O300      0.70582  1_556   S
    C221   O301      1.07507      .   S
    C3     O301      1.07507      .   S
    C225   O302      1.07492      .   S
    C3     O302      1.07492  1_545   S
    C224   O303      1.07491      .   S
    C2     O303      1.07491  1_545   S
    C220   O304      1.07507      .   S
    C2     O304      1.07507      .   S
    C168   O305      0.72039  1_545   S
    C162   O305      0.72039      .   S
    C168   O306      0.82785  1_455   S
    C171   O306      0.82785      .   S
    C168   O307      0.86183      .   S
    C126   O307      0.86183      .   S
    C58    O308      0.54461      .   S
    C150   O308      0.54461      .   S
    C59    O309      0.54461      .   S
    C151   O309      0.54461      .   S
    C66    O310      0.54461      .   S
    C162   O310      0.54461      .   S
    C67    O311      0.54461      .   S
    C163   O311      0.54461      .   S
    C57    O312      0.54504      .   S
    C149   O312      0.54504      .   S
    C65    O313      0.54498      .   S
    C161   O313      0.54498      .   S
    C56    O314      0.54498      .   S
    C148   O314      0.54498      .   S
    C64    O315      0.54497      .   S
    C160   O315      0.54497      .   S
    C150   O316      0.69463      .   S
    C148   O316      0.69463      .   S
    C150   O317      0.70226      .   S
    C170   O317      0.70226      .   S
    C151   O318      0.69463      .   S
    C149   O318      0.69463      .   S
    C151   O319      0.70227      .   S
    C171   O319      0.70227      .   S
    C162   O320      0.69463      .   S
    C160   O320      0.69463      .   S
    C163   O321      0.69464      .   S
    C161   O321      0.69464      .   S
    C163   O322      0.70208      .   S
    C169   O322      0.70208  1_545   S
    C149   O323      0.67384      .   S
    C243   O323      0.67384      .   S
    C160   O324      0.67354      .   S
    C240   O324      0.67354  1_545   S
    C161   O325      0.67366      .   S
    C241   O325      0.67366      .   S
    C148   O326      0.67384      .   S
    C242   O326      0.67384  1_565   S
    C240   O327      1.09279      .   S
    C2     O327      1.09279      .   S
    C240   O328      0.67398      .   S
    C124   O328      0.67398      .   S
    C169   O329      0.73974      .   S
    C170   O329      0.73974      .   S
    C169   O330      0.70226      .   S
    C127   O330      0.70226      .   S
    C242   O331      1.09279  1_565   S
    C2     O331      1.09279      .   S
    C242   O332      0.67365      .   S
    C136   O332      0.67365      .   S
    C171   O333      0.70209  1_545   S
    C139   O333      0.70209      .   S
    C3     O334      1.09279      .   S
    C243   O334      1.09279      .   S
    C3     O335      1.09280      .   S
    C241   O335      1.09280  1_565   S
    C3     O336      1.07507      .   S
    C229   O336      1.07507      .   S
    C3     O337      1.07491  1_545   S
    C233   O337      1.07491      .   S
    C2     O338      1.07491  1_545   S
    C232   O338      1.07491      .   S
    C2     O339      1.07507      .   S
    C228   O339      1.07507      .   S
    C243   O340      0.67365  1_545   S
    C137   O340      0.67365      .   S
    C170   O341      0.70210  1_545   S
    C138   O341      0.70210      .   S
    C241   O342      0.67382  1_565   S
    C125   O342      0.67382      .   S
    C125   O343      0.69464      .   S
    C127   O343      0.69464      .   S
    C125   O344      0.54498      .   S
    C41    O344      0.54498      .   S
    C124   O345      0.69463      .   S
    C126   O345      0.69463      .   S
    C124   O346      0.54499      .   S
    C40    O346      0.54499      .   S
    C136   O347      0.69463      .   S
    C138   O347      0.69463      .   S
    C136   O348      0.54498      .   S
    C48    O348      0.54498      .   S
    C137   O349      0.69463      .   S
    C139   O349      0.69463      .   S
    C137   O350      0.54497      .   S
    C49    O350      0.54497      .   S
    C127   O351      0.54461      .   S
    C43    O351      0.54461      .   S
    C126   O352      0.54461      .   S
    C42    O352      0.54461      .   S
    C138   O353      0.54461      .   S
    C50    O353      0.54461      .   S
    C139   O354      0.54461      .   S
    C51    O354      0.54461      .   S
    C232   O355      0.58869      .   S
    C152   O355      0.58869      .   S
    C228   O356      0.58869      .   S
    C140   O356      0.58869      .   S
    C229   O357      0.58868      .   S
    C141   O357      0.58868      .   S
    C233   O358      0.58868      .   S
    C153   O358      0.58868      .   S
    C54    O359      0.54495      .   S
    C144   O359      0.54495      .   S
    C55    O360      0.54495      .   S
    C145   O360      0.54495      .   S
    C62    O361      0.54495      .   S
    C156   O361      0.54495      .   S
    C63    O362      0.54495      .   S
    C157   O362      0.54495      .   S
    C52    O363      0.54441      .   S
    C142   O363      0.54441      .   S
    C53    O364      0.54441      .   S
    C143   O364      0.54441      .   S
    C60    O365      0.54441      .   S
    C154   O365      0.54441      .   S
    C61    O366      0.54441      .   S
    C155   O366      0.54441      .   S
    C231   O367      0.58273      .   S
    C147   O367      0.58273      .   S
    C234   O368      0.58273      .   S
    C158   O368      0.58273      .   S
    C235   O369      0.58273      .   S
    C159   O369      0.58273      .   S
    C230   O370      0.58273      .   S
    C146   O370      0.58273      .   S
    C142   O371      0.69334      .   S
    C144   O371      0.69334      .   S
    C142   O372      0.70607      .   S
    C198   O372      0.70607      .   S
    C143   O373      0.69334      .   S
    C145   O373      0.69334      .   S
    C143   O374      0.70607      .   S
    C199   O374      0.70607      .   S
    C155   O375      0.69334      .   S
    C157   O375      0.69334      .   S
    C155   O376      0.70607      .   S
    C191   O376      0.70607      .   S
    C154   O377      0.69334      .   S
    C156   O377      0.69334      .   S
    C154   O378      0.70606      .   S
    C190   O378      0.70606      .   S
    C145   O379      0.70155      .   S
    C201   O379      0.70155      .   S
    C157   O380      0.70154      .   S
    C193   O380      0.70154      .   S
    C156   O381      0.70154      .   S
    C192   O381      0.70154      .   S
    C144   O382      0.70155      .   S
    C200   O382      0.70155      .   S
    C159   O383      0.73376      .   S
    C195   O383      0.73376      .   S
    C158   O384      0.73375      .   S
    C194   O384      0.73375      .   S
    C146   O385      0.73376      .   S
    C202   O385      0.73376      .   S
    C147   O386      0.73375      .   S
    C203   O386      0.73375      .   S
    C140   O387      0.69476      .   S
    C196   O387      0.69476      .   S
    C153   O388      0.69476      .   S
    C189   O388      0.69476      .   S
    C152   O389      0.69477      .   S
    C188   O389      0.69477      .   S
    C141   O390      0.69476      .   S
    C197   O390      0.69476      .   S
    C201   O391      0.76176      .   S
    C203   O391      0.76176      .   S
    C201   O392      0.70155      .   S
    C109   O392      0.70155      .   S
    C189   O393      0.72882      .   S
    C191   O393      0.72882      .   S
    C189   O394      0.69470      .   S
    C93    O394      0.69470      .   S
    C190   O395      0.72882      .   S
    C188   O395      0.72882      .   S
    C190   O396      0.70569      .   S
    C94    O396      0.70569      .   S
    C197   O397      0.72882      .   S
    C199   O397      0.72882      .   S
    C197   O398      0.69470      .   S
    C105   O398      0.69470      .   S
    C198   O399      0.72882      .   S
    C196   O399      0.72882      .   S
    C198   O400      0.70569      .   S
    C106   O400      0.70569      .   S
    C199   O401      0.70569      .   S
    C107   O401      0.70569      .   S
    C191   O402      0.70569      .   S
    C95    O402      0.70569      .   S
    C192   O403      0.76177      .   S
    C194   O403      0.76177      .   S
    C192   O404      0.70154      .   S
    C96    O404      0.70154      .   S
    C200   O405      0.76176      .   S
    C202   O405      0.76176      .   S
    C200   O406      0.70154      .   S
    C108   O406      0.70154      .   S
    C202   O407      0.83778      .   S
    C195   O407      0.83778      .   S
    C202   O408      0.72897      .   S
    C110   O408      0.72897      .   S
    C203   O409      0.83797      .   S
    C194   O409      0.83797  1_455   S
    C203   O410      0.72897      .   S
    C111   O410      0.72897      .   S
    C196   O411      0.69470      .   S
    C104   O411      0.69470      .   S
    C195   O412      0.76176      .   S
    C193   O412      0.76176      .   S
    C195   O413      0.73376      .   S
    C99    O413      0.73376      .   S
    C194   O414      0.73375      .   S
    C98    O414      0.73375      .   S
    C188   O415      0.69470      .   S
    C92    O415      0.69470      .   S
    C193   O416      0.70154      .   S
    C97    O416      0.70154      .   S
    C111   O417      0.58754      .   S
    C219   O417      0.58754      .   S
    C110   O418      0.58754      .   S
    C218   O418      0.58754      .   S
    C92    O419      0.58868      .   S
    C212   O419      0.58868      .   S
    C93    O420      0.58868      .   S
    C213   O420      0.58868      .   S
    C104   O421      0.58869      .   S
    C216   O421      0.58869      .   S
    C105   O422      0.58869      .   S
    C217   O422      0.58869      .   S
    C99    O423      0.58267      .   S
    C215   O423      0.58267      .   S
    C98    O424      0.58267      .   S
    C214   O424      0.58267      .   S
    C107   O425      0.69333      .   S
    C109   O425      0.69333      .   S
    C107   O426      0.54480      .   S
    C29    O426      0.54480      .   S
    C106   O427      0.69334      .   S
    C108   O427      0.69334      .   S
    C106   O428      0.54480      .   S
    C28    O428      0.54480      .   S
    C95    O429      0.69334      .   S
    C97    O429      0.69334      .   S
    C95    O430      0.54480      .   S
    C21    O430      0.54480      .   S
    C94    O431      0.69333      .   S
    C96    O431      0.69333      .   S
    C94    O432      0.54480      .   S
    C20    O432      0.54480      .   S
    C108   O433      0.54489      .   S
    C30    O433      0.54489      .   S
    C109   O434      0.54489      .   S
    C31    O434      0.54489      .   S
    C96    O435      0.54489      .   S
    C22    O435      0.54489      .   S
    C97    O436      0.54489      .   S
    C23    O436      0.54489      .   S
    C212   O437      1.07492      .   S
    C0     O437      1.07492  1_545   S
    C213   O438      1.07491      .   S
    C1     O438      1.07491  1_545   S
    C216   O439      1.07507      .   S
    C0     O439      1.07507      .   S
    C217   O440      1.07506      .   S
    C1     O440      1.07506      .   S
    C238   O441      0.69396      .   S
    C88    O441      0.69396      .   S
    C238   O442      1.15410      .   S
    C0     O442      1.15410      .   S
    C238   O443      0.83777  1_545   S
    C100   O443      0.83777      .   S
    C11    O444      0.54461      .   S
    C79    O444      0.54461      .   S
    C18    O445      0.54461      .   S
    C90    O445      0.54461      .   S
    C19    O446      0.54458      .   S
    C91    O446      0.54458      .   S
    C10    O447      0.54461      .   S
    C78    O447      0.54461      .   S
    C16    O448      0.54499      .   S
    C88    O448      0.54499      .   S
    C17    O449      0.54498      .   S
    C89    O449      0.54498      .   S
    C9     O450      0.54498      .   S
    C77    O450      0.54498      .   S
    C8     O451      0.54483      .   S
    C76    O451      0.54483      .   S
    C91    O452      0.69463      .   S
    C89    O452      0.69463      .   S
    C91    O453      0.70229      .   S
    C167   O453      0.70229      .   S
    C79    O454      0.69463      .   S
    C77    O454      0.69463      .   S
    C79    O455      0.70209      .   S
    C165   O455      0.70209  1_545   S
    C78    O456      0.69462      .   S
    C76    O456      0.69462      .   S
    C78    O457      0.70209      .   S
    C164   O457      0.70209  1_545   S
    C90    O458      0.69463      .   S
    C88    O458      0.69463      .   S
    C90    O459      0.70227      .   S
    C166   O459      0.70227      .   S
    C76    O460      0.67379      .   S
    C236   O460      0.67379  1_545   S
    C77    O461      0.67365      .   S
    C237   O461      0.67365  1_545   S
    C89    O462      0.67384      .   S
    C239   O462      0.67384      .   S
    C237   O463      1.09280      .   S
    C1     O463      1.09280      .   S
    C237   O464      0.67383      .   S
    C113   O464      0.67383      .   S
    C239   O465      1.09279      .   S
    C1     O465      1.09279      .   S
    C239   O466      0.67353  1_545   S
    C101   O466      0.67353      .   S
    C1     O467      1.07492  1_545   S
    C205   O467      1.07492      .   S
    C1     O468      1.07507      .   S
    C209   O468      1.07507      .   S
    C0     O469      1.09280      .   S
    C236   O469      1.09280      .   S
    C0     O470      1.07491  1_545   S
    C204   O470      1.07491      .   S
    C0     O471      1.07507      .   S
    C208   O471      1.07507      .   S
    C164   O472      0.73974      .   S
    C167   O472      0.73974      .   S
    C164   O473      0.70227      .   S
    C114   O473      0.70227      .   S
    C166   O474      0.73995  1_455   S
    C165   O474      0.73995      .   S
    C166   O475      0.70208  1_545   S
    C102   O475      0.70208      .   S
    C236   O476      0.67384      .   S
    C112   O476      0.67384      .   S
    C165   O477      0.70227      .   S
    C115   O477      0.70227      .   S
    C167   O478      0.70200  1_545   S
    C103   O478      0.70200      .   S
    C101   O479      0.69463      .   S
    C103   O479      0.69463      .   S
    C101   O480      0.54513      .   S
    C25    O480      0.54513      .   S
    C113   O481      0.69463      .   S
    C115   O481      0.69463      .   S
    C113   O482      0.54499      .   S
    C33    O482      0.54499      .   S
    C112   O483      0.69463      .   S
    C114   O483      0.69463      .   S
    C112   O484      0.54499      .   S
    C32    O484      0.54499      .   S
    C100   O485      0.69464      .   S
    C102   O485      0.69464      .   S
    C100   O486      0.54497      .   S
    C24    O486      0.54497      .   S
    C103   O487      0.54463      .   S
    C27    O487      0.54463      .   S
    C115   O488      0.54461      .   S
    C35    O488      0.54461      .   S
    C102   O489      0.54461      .   S
    C26    O489      0.54461      .   S
    C114   O490      0.54461      .   S
    C34    O490      0.54461      .   S
    C204   O491      0.58868      .   S
    C68    O491      0.58868      .   S
    C205   O492      0.58868      .   S
    C69    O492      0.58868      .   S
    C208   O493      0.58868      .   S
    C80    O493      0.58868      .   S
    C209   O494      0.58868      .   S
    C81    O494      0.58868      .   S
    C6     O495      0.54489      .   S
    C72    O495      0.54489      .   S
    C14    O496      0.54489      .   S
    C84    O496      0.54489      .   S
    C7     O497      0.54489      .   S
    C73    O497      0.54489      .   S
    C15    O498      0.54489      .   S
    C85    O498      0.54489      .   S
    C4     O499      0.54480      .   S
    C70    O499      0.54480      .   S
    C13    O500      0.54480      .   S
    C83    O500      0.54480      .   S
    C12    O501      0.54480      .   S
    C82    O501      0.54480      .   S
    C5     O502      0.54480      .   S
    C71    O502      0.54480      .   S
    C211   O503      0.58310      .   S
    C87    O503      0.58310      .   S
    C210   O504      0.58310      .   S
    C86    O504      0.58310      .   S
    C207   O505      0.58273      .   S
    C75    O505      0.58273      .   S
    C206   O506      0.58273      .   S
    C74    O506      0.58273      .   S
    C84    O507      0.69334      .   S
    C82    O507      0.69334      .   S
    C72    O508      0.69333      .   S
    C70    O508      0.69333      .   S
    C73    O509      0.69334      .   S
    C71    O509      0.69334      .   S
    C73    O510      0.70155      .   S
    C177   O510      0.70155      .   S
    C85    O511      0.69334      .   S
    C83    O511      0.69334      .   S
    C85    O512      0.70154      .   S
    C185   O512      0.70154      .   S
    C70    O513      0.70569      .   S
    C174   O513      0.70569      .   S
    C71    O514      0.70569      .   S
    C175   O514      0.70569      .   S
    C74    O515      0.73375      .   S
    C178   O515      0.73375      .   S
