# CIF file generated by openbabel 2.4.90, see http://openbabel.sf.net
data_I
_chemical_name_common ''
_cell_length_a 22.958
_cell_length_b 12.515
_cell_length_c 14.852
_cell_angle_alpha 90
_cell_angle_beta 90
_cell_angle_gamma 90
_space_group_name_H-M_alt 'P 1'
_space_group_name_Hall 'P 1'
loop_
    _symmetry_equiv_pos_as_xyz
    x,y,z
loop_
    _atom_site_label
    _atom_site_type_symbol
    _atom_site_fract_x
    _atom_site_fract_y
    _atom_site_fract_z
    _atom_site_occupancy
    N0      N    0.49999   0.00002   0.74997   1.000
    N1      N    0.49999   0.00002   0.24999   1.000
    N2      N    0.71072   0.80385   0.49999   1.000
    N3      N    0.28926   0.19619   0.49999   1.000
    O4      O    0.59979   0.64155   0.49997   1.000
    N5      N    0.78925   0.19619   0.49999   1.000
    N6      N    0.21073   0.80385   0.49999   1.000
    O7      O    0.09979   0.64155   0.49997   1.000
    N8      N    0.78926   0.80385   0.00000   1.000
    N9      N    0.21073   0.19618   0.00000   1.000
    O10     O    0.09979   0.35848   0.99999   1.000
    N11     N    0.28927   0.80385   0.00000   1.000
    N12     N    0.71072   0.19619   0.00000   1.000
    O13     O    0.40019   0.64155   0.99999   1.000
    N14     N    0.99999   0.00001   0.24749   1.000
    N15     N    0.99999   0.00002   0.74749   1.000
    Zr16    Zr   0.74999   0.00000   0.74998   1.000
    O17     O    0.75172   0.04991   0.70327   1.000
    O18     O    0.82439   0.00001   0.74936   1.000
    O19     O    0.74825   0.04991   0.79669   1.000
    O20     O    0.74825   0.95011   0.70327   1.000
    O21     O    0.75172   0.95011   0.79669   1.000
    O22     O    0.67559   0.00000   0.74998   1.000
    Zr23    Zr   0.74999   0.00000   0.24999   1.000
    O24     O    0.75172   0.04991   0.29670   1.000
    O25     O    0.74825   0.95011   0.29670   1.000
    O26     O    0.74825   0.04991   0.20328   1.000
    O27     O    0.82439   0.00000   0.24937   1.000
    O28     O    0.75172   0.95011   0.20328   1.000
    O29     O    0.67559   0.00000   0.24999   1.000
    Zr30    Zr   0.25000   0.00000   0.24999   1.000
    O31     O    0.24826   0.04991   0.20328   1.000
    O32     O    0.25173   0.04991   0.29670   1.000
    O33     O    0.24826   0.95011   0.29670   1.000
    O34     O    0.25173   0.95011   0.20328   1.000
    O35     O    0.17559   0.00000   0.24935   1.000
    O36     O    0.32439   0.00000   0.24999   1.000
    Zr37    Zr   0.24999   0.00000   0.74998   1.000
    O38     O    0.25173   0.95011   0.79669   1.000
    O39     O    0.24826   0.04991   0.79669   1.000
    O40     O    0.24826   0.95011   0.70327   1.000
    O41     O    0.25173   0.04991   0.70327   1.000
    O42     O    0.17559   0.00001   0.74311   1.000
    O43     O    0.32439   0.00000   0.74998   1.000
loop_
    _geom_bond_atom_site_label_1
    _geom_bond_atom_site_label_2
    _geom_bond_distance
    _geom_bond_site_symmetry_2
    _ccdc_geom_bond_type
    N3     O4        9.04928      .   S
    N2     O4        3.25746      .   S
    N5     O7        9.04952  1_655   S
    N6     O7        3.25754      .   S
    N8     O10       9.04954  1_654   S
    N9     O10       3.25756  1_554   S
    N12    O13       9.04931  1_554   S
    N11    O13       3.25745  1_554   S
    Zr16   O17       0.93429      .   S
    N5     O17       3.63445      .   S
    Zr16   O18       1.70813      .   S
    N15    O18       4.03160      .   S
    Zr16   O19       0.93429      .   S
    N12    O19       3.63480  1_554   S
    Zr16   O20       0.93419  1_545   S
    N2     O20       3.63433      .   S
    Zr16   O21       0.93419  1_545   S
    N8     O21       3.63468  1_554   S
    Zr16   O22       1.70805      .   S
    N0     O22       4.03135      .   S
    Zr23   O24       0.93429      .   S
    N5     O24       3.63457      .   S
    Zr23   O25       0.93419  1_545   S
    N2     O25       3.63445      .   S
    Zr23   O26       0.93430      .   S
    N12    O26       3.63444      .   S
    Zr23   O27       1.70812      .   S
    N14    O27       4.03159      .   S
    Zr23   O28       0.93419  1_545   S
    N8     O28       3.63431      .   S
    Zr23   O29       1.70805      .   S
    N1     O29       4.03136      .   S
    Zr30   O31       0.93429      .   S
    N9     O31       3.63444      .   S
    Zr30   O32       0.93430      .   S
    N3     O32       3.63457      .   S
    Zr30   O33       0.93419  1_545   S
    N6     O33       3.63445      .   S
    Zr30   O34       0.93418  1_545   S
    N11    O34       3.63430      .   S
    Zr30   O35       1.70813      .   S
    N14    O35       4.03161  1_655   S
    Zr30   O36       1.70804      .   S
    N1     O36       4.03134      .   S
    Zr37   O38       0.93419  1_545   S
    N11    O38       3.63468  1_554   S
    Zr37   O39       0.93429      .   S
    N9     O39       3.63479  1_554   S
    Zr37   O40       0.93419  1_545   S
    N6     O40       3.63433      .   S
    Zr37   O41       0.93430      .   S
    N3     O41       3.63445      .   S
    Zr37   O42       1.71114      .   S
    N15    O42       4.03203  1_655   S
    Zr37   O43       1.70805      .   S
    N0     O43       4.03135      .   S
