# CIF file generated by openbabel 2.4.90, see http://openbabel.sf.net
data_I
_chemical_name_common ''
_cell_length_a 22.958
_cell_length_b 12.515
_cell_length_c 14.852
_cell_angle_alpha 90
_cell_angle_beta 90
_cell_angle_gamma 90
_space_group_name_H-M_alt 'P 1'
_space_group_name_Hall 'P 1'
loop_
    _symmetry_equiv_pos_as_xyz
    x,y,z
loop_
    _atom_site_label
    _atom_site_type_symbol
    _atom_site_fract_x
    _atom_site_fract_y
    _atom_site_fract_z
    _atom_site_occupancy
    Zr0     Zr   0.24999   0.00000   0.74998   1.000
    Zr1     Zr   0.74999   0.00000   0.74998   1.000
    Zr2     Zr   0.25000   0.00000   0.24999   1.000
    Zr3     Zr   0.74999   0.00000   0.24999   1.000
    N4      N    0.49999   0.00002   0.74997   1.000
    O5      O    0.60119   0.00001   0.74998   1.000
    O6      O    0.39879   0.00001   0.74998   1.000
    N7      N    0.49999   0.00002   0.24999   1.000
    O8      O    0.39879   0.00001   0.24999   1.000
    O9      O    0.60119   0.00001   0.24999   1.000
    N10     N    0.71072   0.80385   0.49999   1.000
    N11     N    0.28926   0.19619   0.49999   1.000
    O12     O    0.25347   0.09981   0.34341   1.000
    O13     O    0.74651   0.90021   0.34341   1.000
    O14     O    0.74651   0.90021   0.65657   1.000
    O15     O    0.25347   0.09981   0.65657   1.000
    O16     O    0.59979   0.64155   0.49997   1.000
    N17     N    0.78925   0.19619   0.49999   1.000
    N18     N    0.21073   0.80385   0.49999   1.000
    O19     O    0.24652   0.90021   0.65657   1.000
    O20     O    0.75346   0.09981   0.65657   1.000
    O21     O    0.24652   0.90021   0.34341   1.000
    O22     O    0.75346   0.09981   0.34341   1.000
    O23     O    0.09979   0.64155   0.49997   1.000
    N24     N    0.78926   0.80385   0.00000   1.000
    N25     N    0.21073   0.19618   0.00000   1.000
    O26     O    0.24652   0.09981   0.15658   1.000
    O27     O    0.24652   0.09981   0.84340   1.000
    O28     O    0.75346   0.90021   0.15658   1.000
    O29     O    0.75346   0.90021   0.84340   1.000
    O30     O    0.09979   0.35848   0.99999   1.000
    N31     N    0.28927   0.80385   0.00000   1.000
    N32     N    0.71072   0.19619   0.00000   1.000
    O33     O    0.74651   0.09981   0.84340   1.000
    O34     O    0.25347   0.90021   0.84340   1.000
    O35     O    0.25347   0.90021   0.15658   1.000
    O36     O    0.74651   0.09981   0.15658   1.000
    O37     O    0.40019   0.64155   0.99999   1.000
    N38     N    0.99999   0.00001   0.24749   1.000
    O39     O    0.10119   0.00001   0.24872   1.000
    O40     O    0.89879   0.00001   0.24874   1.000
    N41     N    0.99999   0.00002   0.74749   1.000
    O42     O    0.10119   0.00001   0.73624   1.000
    O43     O    0.89879   0.00001   0.74873   1.000
loop_
    _geom_bond_atom_site_label_1
    _geom_bond_atom_site_label_2
    _geom_bond_distance
    _geom_bond_site_symmetry_2
    _ccdc_geom_bond_type
    N4     O5        2.32330      .   S
    Zr1    O5        3.41609      .   S
    N4     O6        2.32330      .   S
    Zr0    O6        3.41610      .   S
    N7     O8        2.32330      .   S
    Zr2    O8        3.41609      .   S
    N7     O9        2.32330      .   S
    Zr3    O9        3.41611      .   S
    N11    O12       2.74563      .   S
    Zr2    O12       1.86860      .   S
    N10    O13       2.74559      .   S
    Zr3    O13       1.86838  1_545   S
    N10    O14       2.74547      .   S
    Zr1    O14       1.86838  1_545   S
    N11    O15       2.74551      .   S
    Zr0    O15       1.86859      .   S
    N11    O16       9.04928      .   S
    N10    O16       3.25746      .   S
    N18    O19       2.74547      .   S
    Zr0    O19       1.86838  1_545   S
    N17    O20       2.74551      .   S
    Zr1    O20       1.86859      .   S
    N18    O21       2.74560      .   S
    Zr2    O21       1.86838  1_545   S
    N17    O22       2.74563      .   S
    Zr3    O22       1.86859      .   S
    N17    O23       9.04952  1_655   S
    N18    O23       3.25754      .   S
    N25    O26       2.74550      .   S
    Zr2    O26       1.86859      .   S
    N25    O27       2.74586  1_554   S
    Zr0    O27       1.86859      .   S
    N24    O28       2.74546      .   S
    Zr3    O28       1.86837  1_545   S
    N24    O29       2.74584  1_554   S
    Zr1    O29       1.86838  1_545   S
    N24    O30       9.04954  1_654   S
    N25    O30       3.25756  1_554   S
    N32    O33       2.74587  1_554   S
    Zr1    O33       1.86859      .   S
    N31    O34       2.74584  1_554   S
    Zr0    O34       1.86837  1_545   S
    N31    O35       2.74546      .   S
    Zr2    O35       1.86837  1_545   S
    N32    O36       2.74550      .   S
    Zr3    O36       1.86859      .   S
    N32    O37       9.04931  1_554   S
    N31    O37       3.25745  1_554   S
    N38    O39       2.32349  1_655   S
    Zr2    O39       3.41626      .   S
    N38    O40       2.32348      .   S
    Zr3    O40       3.41624      .   S
    N41    O42       2.32941  1_655   S
    Zr0    O42       3.42229      .   S
    N41    O43       2.32347      .   S
    Zr1    O43       3.41625      .   S
