# CIF file generated by openbabel 2.4.90, see http://openbabel.sf.net
data_I
_chemical_name_common ''
_cell_length_a 13.464
_cell_length_b 14.949
_cell_length_c 14.953
_cell_angle_alpha 89.953
_cell_angle_beta 89.982
_cell_angle_gamma 89.964
_space_group_name_H-M_alt 'P 1'
_space_group_name_Hall 'P 1'
loop_
    _symmetry_equiv_pos_as_xyz
    x,y,z
loop_
    _atom_site_label
    _atom_site_type_symbol
    _atom_site_fract_x
    _atom_site_fract_y
    _atom_site_fract_z
    _atom_site_occupancy
    H0      H    0.42992   0.96755   0.68355   1.000
    H1      H    0.26054   0.00000   0.58396   1.000
    H2      H    0.29140   0.72338   0.61811   1.000
    H3      H    0.20279   0.94849   0.43700   1.000
    H4      H    0.05509   0.92090   0.34034   1.000
    H5      H    0.95930   0.71136   0.51563   1.000
    H6      H    0.10612   0.73911   0.61520   1.000
    H7      H    0.41717   0.54273   0.70667   1.000
    H8      H    0.41517   0.41889   0.59317   1.000
    H9      H    0.56965   0.68384   0.96737   1.000
    H10     H    0.73915   0.58436   0.00000   1.000
    H11     H    0.70898   0.61861   0.72340   1.000
    H12     H    0.79733   0.43747   0.94858   1.000
    H13     H    0.94509   0.34069   0.92097   1.000
    H14     H    0.04100   0.51597   0.71140   1.000
    H15     H    0.89413   0.61567   0.73926   1.000
    H16     H    0.58353   0.70669   0.54263   1.000
    H17     H    0.58626   0.59287   0.41900   1.000
    H18     H    0.50094   0.44527   0.44571   1.000
    H19     H    0.93037   0.03267   0.31655   1.000
    H20     H    0.76101   0.99602   0.41617   1.000
    H21     H    0.79132   0.27680   0.38176   1.000
    H22     H    0.70317   0.05179   0.56300   1.000
    H23     H    0.55533   0.07922   0.65974   1.000
    H24     H    0.45905   0.28866   0.48444   1.000
    H25     H    0.60602   0.26102   0.38482   1.000
    H26     H    0.91686   0.45761   0.29355   1.000
    H27     H    0.91442   0.58125   0.40725   1.000
    H28     H    0.07004   0.31687   0.03264   1.000
    H29     H    0.23952   0.41628   0.99608   1.000
    H30     H    0.20891   0.38172   0.27677   1.000
    H31     H    0.29733   0.56295   0.05172   1.000
    H32     H    0.44498   0.65968   0.07923   1.000
    H33     H    0.54097   0.48448   0.28883   1.000
    H34     H    0.39417   0.38484   0.26114   1.000
    H35     H    0.08325   0.29345   0.45742   1.000
    H36     H    0.08549   0.40704   0.58118   1.000
    H37     H    0.99985   0.55462   0.55478   1.000
    H38     H    0.68088   0.81682   0.46740   1.000
    H39     H    0.51158   0.91656   0.50422   1.000
    H40     H    0.54145   0.88197   0.22350   1.000
    H41     H    0.45299   0.06323   0.44843   1.000
    H42     H    0.30505   0.15978   0.42070   1.000
    H43     H    0.20959   0.98444   0.21142   1.000
    H44     H    0.35668   0.88501   0.23931   1.000
    H45     H    0.66699   0.79384   0.04242   1.000
    H46     H    0.66468   0.90757   0.91863   1.000
    H47     H    0.81957   0.53281   0.18358   1.000
    H48     H    0.98912   0.49598   0.08425   1.000
    H49     H    0.95898   0.77678   0.11850   1.000
    H50     H    0.04726   0.55177   0.93740   1.000
    H51     H    0.19507   0.57936   0.84075   1.000
    H52     H    0.29105   0.78854   0.00000   1.000
    H53     H    0.14412   0.76075   0.11562   1.000
    H54     H    0.83292   0.95785   0.20640   1.000
    H55     H    0.83530   0.08158   0.09265   1.000
    H56     H    0.75001   0.05514   0.94505   1.000
    H57     H    0.18075   0.18356   0.53303   1.000
    H58     H    0.01140   0.08418   0.49609   1.000
    H59     H    0.04115   0.11821   0.77686   1.000
    H60     H    0.95308   0.93738   0.55100   1.000
    H61     H    0.80531   0.84075   0.57925   1.000
    H62     H    0.70928   0.00000   0.78870   1.000
    H63     H    0.85620   0.11533   0.76098   1.000
    H64     H    0.16686   0.20647   0.95785   1.000
    H65     H    0.16431   0.09262   0.08154   1.000
    H66     H    0.31956   0.46737   0.81648   1.000
    H67     H    0.48877   0.50423   0.91600   1.000
    H68     H    0.45886   0.22340   0.88220   1.000
    H69     H    0.54697   0.44849   0.06310   1.000
    H70     H    0.69480   0.42086   0.15970   1.000
    H71     H    0.79091   0.21154   0.98449   1.000
    H72     H    0.64392   0.23932   0.88499   1.000
    H73     H    0.33293   0.04234   0.79382   1.000
    H74     H    0.33507   0.91849   0.90746   1.000
    H75     H    0.24959   0.94494   0.05502   1.000
    C76     C    0.37657   0.92206   0.65407   1.000
    C77     C    0.29359   0.94140   0.60448   1.000
    C78     C    0.30699   0.79427   0.62330   1.000
    C79     C    0.16336   0.84506   0.53144   1.000
    C80     C    0.14891   0.89726   0.45489   1.000
    C81     C    0.06662   0.88161   0.40081   1.000
    C82     C    0.99828   0.81408   0.42197   1.000
    C83     C    0.01364   0.76269   0.49917   1.000
    C84     C    0.09542   0.77790   0.55419   1.000
    C85     C    0.45428   0.54989   0.64243   1.000
    C86     C    0.45298   0.48188   0.57871   1.000
    C87     C    0.62319   0.65440   0.92197   1.000
    C88     C    0.70623   0.60488   0.94141   1.000
    C89     C    0.69320   0.62377   0.79429   1.000
    C90     C    0.83680   0.53190   0.84510   1.000
    C91     C    0.85127   0.45536   0.89739   1.000
    C92     C    0.93352   0.40115   0.88165   1.000
    C93     C    0.00195   0.42231   0.81410   1.000
    C94     C    0.98657   0.49950   0.76270   1.000
    N95     N    0.24993   0.12864   0.87161   1.000
    C96     C    0.90484   0.55465   0.77806   1.000
    C97     C    0.54660   0.64239   0.54989   1.000
    C98     C    0.54832   0.57849   0.48205   1.000
    C99     C    0.50077   0.49690   0.49719   1.000
    C100    C    0.87692   0.07815   0.34600   1.000
    C101    C    0.79395   0.05880   0.39560   1.000
    C102    C    0.80706   0.20592   0.37660   1.000
    C103    C    0.66349   0.15511   0.46850   1.000
    C104    C    0.64916   0.10296   0.54518   1.000
    C105    C    0.56678   0.11852   0.59925   1.000
    C106    C    0.49827   0.18600   0.57810   1.000
    C107    C    0.51357   0.23738   0.50088   1.000
    C108    C    0.59542   0.22224   0.44585   1.000
    C109    C    0.95388   0.45035   0.35781   1.000
    C110    C    0.95230   0.51824   0.42165   1.000
    C111    C    0.12348   0.34620   0.07814   1.000
    C112    C    0.20651   0.39570   0.05882   1.000
    C113    C    0.19323   0.37665   0.20590   1.000
    C114    C    0.33685   0.46854   0.15515   1.000
    C115    C    0.35123   0.54511   0.10295   1.000
    C116    C    0.43350   0.59921   0.11854   1.000
    C117    C    0.50190   0.57810   0.18607   1.000
    C118    C    0.48657   0.50090   0.23749   1.000
    C119    C    0.40480   0.44585   0.22233   1.000
    C120    C    0.04619   0.35775   0.45025   1.000
    C121    C    0.04762   0.42150   0.51822   1.000
    C122    C    0.99992   0.50310   0.50319   1.000
    C123    C    0.62734   0.84627   0.42203   1.000
    C124    C    0.54440   0.89592   0.44143   1.000
    C125    C    0.55727   0.87686   0.29435   1.000
    C126    C    0.41375   0.96880   0.34514   1.000
    C127    C    0.39914   0.04528   0.39725   1.000
    C128    C    0.31676   0.09933   0.38149   1.000
    C129    C    0.24838   0.07810   0.31404   1.000
    C130    C    0.26396   0.00096   0.26271   1.000
    C131    C    0.34583   0.94600   0.27803   1.000
    C132    C    0.70393   0.85813   0.04961   1.000
    C133    C    0.70245   0.92199   0.98162   1.000
    C134    C    0.87313   0.57821   0.15419   1.000
    C135    C    0.95620   0.55879   0.10474   1.000
    C136    C    0.94318   0.70591   0.12361   1.000
    C137    C    0.08677   0.65502   0.03184   1.000
    C138    C    0.10121   0.60290   0.95532   1.000
    C139    C    0.18351   0.61860   0.90120   1.000
    C140    C    0.25197   0.68601   0.92235   1.000
    C141    C    0.23659   0.73732   0.99953   1.000
    C142    C    0.15481   0.72205   0.05461   1.000
    C143    C    0.79600   0.95065   0.14211   1.000
    C144    C    0.79752   0.01859   0.07820   1.000
    C145    C    0.74999   0.00354   0.99666   1.000
    C146    C    0.12717   0.15411   0.57838   1.000
    C147    C    0.04420   0.10464   0.55891   1.000
    C148    C    0.05703   0.12342   0.70602   1.000
    C149    C    0.91358   0.03168   0.65509   1.000
    C150    C    0.89914   0.95524   0.60289   1.000
    C151    C    0.81684   0.90115   0.61857   1.000
    C152    C    0.74834   0.92227   0.68602   1.000
    C153    C    0.76374   0.99937   0.73740   1.000
    C154    C    0.84552   0.05438   0.72219   1.000
    C155    C    0.20376   0.14211   0.95061   1.000
    C156    C    0.20217   0.07821   0.01856   1.000
    C157    C    0.37305   0.42195   0.84604   1.000
    C158    C    0.45594   0.44141   0.89563   1.000
    C159    C    0.44303   0.29427   0.87695   1.000
    C160    C    0.58652   0.34516   0.96870   1.000
    C161    C    0.60094   0.39730   0.04522   1.000
    C162    C    0.68329   0.38162   0.09926   1.000
    C163    C    0.75177   0.31413   0.07810   1.000
    C164    C    0.73642   0.26282   0.00095   1.000
    C165    C    0.65459   0.27807   0.94596   1.000
    C166    C    0.29591   0.04953   0.85809   1.000
    C167    C    0.29733   0.98153   0.92191   1.000
    C168    C    0.24965   0.99658   0.00346   1.000
    N169    N    0.38420   0.83031   0.66487   1.000
    N170    N    0.24926   0.85951   0.58525   1.000
    N171    N    0.61579   0.66523   0.83024   1.000
    N172    N    0.75081   0.58571   0.85958   1.000
    N173    N    0.50032   0.62894   0.62886   1.000
    N174    N    0.88439   0.16989   0.33511   1.000
    N175    N    0.74944   0.14068   0.41476   1.000
    N176    N    0.11591   0.33526   0.16985   1.000
    N177    N    0.25094   0.41475   0.14070   1.000
    N178    N    0.00003   0.37131   0.37127   1.000
    N179    N    0.63464   0.83533   0.33032   1.000
    N180    N    0.49977   0.91504   0.35962   1.000
    N181    N    0.86575   0.66995   0.16502   1.000
    N182    N    0.00000   0.64061   0.08561   1.000
    N183    N    0.74996   0.87161   0.12864   1.000
    N184    N    0.13444   0.16488   0.67011   1.000
    N185    N    0.99952   0.08544   0.64070   1.000
    N186    N    0.36571   0.33021   0.83533   1.000
    N187    N    0.50054   0.35957   0.91490   1.000
loop_
    _geom_bond_atom_site_label_1
    _geom_bond_atom_site_label_2
    _geom_bond_distance
    _geom_bond_site_symmetry_2
    _ccdc_geom_bond_type
    H52    C141      1.06050  1_554   S
    H10    C88       1.02844  1_554   S
    C164   C163      1.40136      .   S
    C164   C165      1.39359  1_554   S
    C164   H71       1.08897  1_554   S
    C168   C156      1.39584  1_565   S
    C168   H75       1.09055      .   S
    C168   C167      1.39620  1_554   S
    C156   H65       1.09226      .   S
    C156   C155      1.39414  1_554   S
    C137   C142      1.40035      .   S
    C137   N182      1.43433      .   S
    C137   C138      1.39829  1_554   S
    H28    C111      1.08351      .   S
    H45    C132      1.08791      .   S
    C161   H69       1.08833      .   S
    C161   C162      1.39187      .   S
    C161   C160      1.39863  1_554   S
    C132   N183      1.34985      .   S
    C132   C133      1.39410  1_554   S
    H31    C115      1.08826      .   S
    C142   H53       1.09014      .   S
    C142   C141      1.39361  1_554   S
    C112   C111      1.37153      .   S
    C112   N177      1.39256      .   S
    C112   H29       1.08251  1_554   S
    C163   C162      1.40253      .   S
    C111   N176      1.38465      .   S
    C144   H55       1.09233      .   S
    C144   C143      1.39421  1_545   S
    C144   C145      1.39565  1_554   S
    H32    C116      1.08902      .   S
    H48    C135      1.08252      .   S
    N182   C135      1.38783  1_455   S
    N182   C136      1.36409  1_455   S
    C162   H70       1.08903      .   S
    C115   C116      1.39179      .   S
    C115   C114      1.39838      .   S
    C135   C134      1.37156      .   S
    H49    C136      1.08329      .   S
    C116   C117      1.40253      .   S
    C136   N181      1.32626      .   S
    N183   C143      1.34987      .   S
    N177   C114      1.42579      .   S
    N177   C113      1.37026      .   S
    C143   H54       1.08787      .   S
    C134   N181      1.38455      .   S
    C134   H47       1.08349      .   S
    C114   C119      1.40034      .   S
    N176   C113      1.32622      .   S
    C117   C118      1.40148      .   S
    C113   H30       1.08331      .   S
    H43    C130      1.08899  1_565   S
    C119   C118      1.39359      .   S
    C119   H34       1.09013      .   S
    H40    C125      1.08332      .   S
    C118   H33       1.08903      .   S
    H44    C131      1.09008      .   S
    C130   C131      1.39328  1_545   S
    C130   C129      1.40141      .   S
    C131   C126      1.40037      .   S
    H26    C109      1.08791      .   S
    C125   N179      1.32621      .   S
    C125   N180      1.37025      .   S
    C129   C128      1.40250      .   S
    H19    C100      1.08349      .   S
    N179   C123      1.38464      .   S
    N174   C100      1.38457      .   S
    N174   C102      1.32605      .   S
    H4     C81       1.08897      .   S
    C126   N180      1.42574      .   S
    C126   C127      1.39798  1_565   S
    C100   C101      1.37156      .   S
    C109   N178      1.34963  1_655   S
    C109   C110      1.39399      .   S
    N180   C124      1.39245      .   S
    N178   C120      1.34983      .   S
    C102   H21       1.08333      .   S
    C102   N175      1.37052      .   S
    C128   C127      1.39185      .   S
    C128   H42       1.08902      .   S
    H25    C108      1.09013      .   S
    C101   N175      1.39256      .   S
    C101   H20       1.08251  1_545   S
    C127   H41       1.08827      .   S
    C81    C82       1.40221  1_455   S
    C81    C80       1.39194      .   S
    H27    C110      1.09221      .   S
    N175   C103      1.42511      .   S
    H17    C98       1.09338      .   S
    C110   C122      1.39604      .   S
    C82    C83       1.40150  1_655   S
    C123   C124      1.37159      .   S
    C123   H38       1.08305      .   S
    H3     C80       1.08836      .   S
    C124   H39       1.08260      .   S
    H18    C99       1.09051      .   S
    C108   C103      1.40009      .   S
    C108   C107      1.39361      .   S
    C120   H35       1.08794      .   S
    C120   C121      1.39403      .   S
    C80    C79       1.39837      .   S
    C103   C104      1.39938      .   S
    C98    C99       1.39622      .   S
    C98    C97       1.39405      .   S
    H24    C107      1.08899      .   S
    H58    C147      1.08255      .   S
    C99    C86       1.39630      .   S
    C83    H5        1.08860  1_455   S
    C83    C84       1.39356      .   S
    C107   C106      1.40149      .   S
    C122   C121      1.39625  1_655   S
    C122   H37       1.09051      .   S
    C121   H36       1.09220      .   S
    C79    C84       1.40032      .   S
    C79    N170      1.42585      .   S
    H57    C146      1.08344      .   S
    H16    C97       1.08793      .   S
    C104   H22       1.08814      .   S
    C104   C105      1.39187      .   S
    C97    N173      1.34997      .   S
    H60    C150      1.09570      .   S
    C84    H6        1.09015      .   S
    C147   C146      1.37155      .   S
    C147   N185      1.39254  1_455   S
    C106   C105      1.40250      .   S
    C146   N184      1.38469      .   S
    C86    H8        1.09216      .   S
    C86    C85       1.39405      .   S
    H61    C151      1.08907      .   S
    H1     C77       1.02897  1_545   S
    N170   C77       1.39246      .   S
    N170   C78       1.37022      .   S
    C105   H23       1.08910      .   S
    C150   C151      1.39189      .   S
    C150   C149      1.39800  1_565   S
    C77    C76       1.37162      .   S
    H2     C78       1.08329      .   S
    C151   C152      1.40253      .   S
    C78    N169      1.32636      .   S
    N173   C85       1.34983      .   S
    N185   C149      1.42547      .   S
    N185   C148      1.37035  1_655   S
    C85    H7        1.08788      .   S
    C76    N169      1.38457      .   S
    C76    H0        1.08351      .   S
    C149   C154      1.40037      .   S
    N184   C148      1.32619      .   S
    C152   C153      1.40120      .   S
    C148   H59       1.08331      .   S
    H14    C94       1.08887  1_455   S
    C154   C153      1.39323  1_545   S
    C154   H63       1.09010      .   S
    H11    C89       1.08385      .   S
    C153   H62       1.06111  1_565   S
    H15    C96       1.09013      .   S
    C94    C96       1.39378      .   S
    C94    C93       1.40117  1_655   S
    C96    C90       1.39967      .   S
    H73    C166      1.08788      .   S
    C89    N171      1.32619      .   S
    C89    N172      1.37021      .   S
    C93    C92       1.40304  1_455   S
    H66    C157      1.08352      .   S
    N171   C87       1.38465      .   S
    N186   C157      1.38459      .   S
    N186   C159      1.32627      .   S
    H51    C139      1.08898      .   S
    C90    N172      1.42598      .   S
    C90    C91       1.39890      .   S
    C157   C158      1.37162      .   S
    C166   N95       1.34985      .   S
    C166   C167      1.39376  1_545   S
    N172   C88       1.39263      .   S
    N95    C155      1.34987      .   S
    C159   H68       1.08326      .   S
    C159   N187      1.37000      .   S
    C92    C91       1.39186      .   S
    C92    H13       1.08902      .   S
    H72    C165      1.09008      .   S
    C158   N187      1.39240      .   S
    C158   H67       1.08215      .   S
    C91    H12       1.08832      .   S
    C139   C140      1.40250      .   S
    C139   C138      1.39187      .   S
    H74    C167      1.09222      .   S
    N187   C160      1.42603      .   S
    H46    C133      1.09218      .   S
    C87    C88       1.37160      .   S
    C87    H9        1.08352      .   S
    C140   C141      1.40150      .   S
    H50    C138      1.08845      .   S
    H56    C145      1.09063      .   S
    C165   C160      1.40030      .   S
    C155   H64       1.08794      .   S
    C133   C145      1.39579  1_565   S
