# CIF file generated by openbabel 2.4.90, see http://openbabel.sf.net
data_I
_chemical_name_common ''
_cell_length_a 13.464
_cell_length_b 14.949
_cell_length_c 14.953
_cell_angle_alpha 89.953
_cell_angle_beta 89.982
_cell_angle_gamma 89.964
_space_group_name_H-M_alt 'P 1'
_space_group_name_Hall 'P 1'
loop_
    _symmetry_equiv_pos_as_xyz
    x,y,z
loop_
    _atom_site_label
    _atom_site_type_symbol
    _atom_site_fract_x
    _atom_site_fract_y
    _atom_site_fract_z
    _atom_site_occupancy
    C0      C    0.90980   0.79750   0.36219   1.000
    C1      C    0.09037   0.36237   0.79751   1.000
    C2      C    0.40974   0.20255   0.63789   1.000
    C3      C    0.59036   0.63790   0.20260   1.000
    C4      C    0.15978   0.13782   0.29742   1.000
    C5      C    0.34041   0.70261   0.86245   1.000
    C6      C    0.65981   0.86249   0.70255   1.000
    C7      C    0.84032   0.29752   0.13782   1.000
