# CIF file generated by openbabel 2.4.90, see http://openbabel.sf.net
data_I
_chemical_name_common ''
_cell_length_a 13.464
_cell_length_b 14.949
_cell_length_c 14.953
_cell_angle_alpha 89.953
_cell_angle_beta 89.982
_cell_angle_gamma 89.964
_space_group_name_H-M_alt 'P 1'
_space_group_name_Hall 'P 1'
loop_
    _symmetry_equiv_pos_as_xyz
    x,y,z
loop_
    _atom_site_label
    _atom_site_type_symbol
    _atom_site_fract_x
    _atom_site_fract_y
    _atom_site_fract_z
    _atom_site_occupancy
    N0      N    0.31116   0.45628   0.14791   1.000
    N1      N    0.43941   0.95643   0.35230   1.000
    N2      N    0.68915   0.14788   0.45624   1.000
    N3      N    0.56087   0.35232   0.95633   1.000
    N4      N    0.81108   0.54419   0.85208   1.000
    N5      N    0.06102   0.64785   0.04323   1.000
    N6      N    0.93926   0.04311   0.64790   1.000
    N7      N    0.18900   0.85205   0.54379   1.000
    Zr8     Zr   0.50008   0.77232   0.77220   1.000
    O9      O    0.40782   0.79614   0.69829   1.000
    O10     O    0.59229   0.69854   0.79604   1.000
    O11     O    0.33934   0.72170   0.87001   1.000
    O12     O    0.66088   0.87003   0.72165   1.000
    Zr13    Zr   0.75007   0.72796   0.27214   1.000
    O14     O    0.84227   0.70407   0.19814   1.000
    O15     O    0.65798   0.80188   0.29607   1.000
    O16     O    0.58936   0.63005   0.22163   1.000
    O17     O    0.91080   0.77844   0.37004   1.000
    Zr18    Zr   0.00005   0.22792   0.22786   1.000
    O19     O    0.83925   0.27850   0.13000   1.000
    O20     O    0.16090   0.13006   0.27844   1.000
    O21     O    0.90787   0.20404   0.30174   1.000
    O22     O    0.09231   0.30181   0.20400   1.000
    Zr23    Zr   0.25004   0.27217   0.72797   1.000
    O24     O    0.15790   0.19811   0.70412   1.000
    O25     O    0.34221   0.29608   0.80188   1.000
    O26     O    0.08933   0.37022   0.77846   1.000
    O27     O    0.41081   0.22163   0.63004   1.000
loop_
    _geom_bond_atom_site_label_1
    _geom_bond_atom_site_label_2
    _geom_bond_distance
    _geom_bond_site_symmetry_2
    _ccdc_geom_bond_type
    Zr8    O9        1.70025      .   S
    N7     O9        3.83591      .   S
    Zr8    O10       1.69786      .   S
    N4     O10       3.83322      .   S
    Zr8    O11       2.71913      .   S
    N5     O11       4.68669  1_554   S
    Zr8    O12       2.71904      .   S
    N6     O12       4.68658  1_545   S
    Zr13   O14       1.70053      .   S
    N5     O14       3.83957  1_455   S
    Zr13   O15       1.69867      .   S
    N1     O15       3.83367      .   S
    Zr13   O16       2.72061      .   S
    N0     O16       4.69176      .   S
    Zr13   O17       2.72049      .   S
    N7     O17       4.69126  1_455   S
    Zr18   O19       2.71992  1_455   S
    N3     O19       4.69115  1_556   S
    Zr18   O20       2.71985      .   S
    N1     O20       4.69090  1_565   S
    Zr18   O21       1.69916  1_455   S
    N2     O21       3.83536      .   S
    Zr18   O22       1.70042      .   S
    N0     O22       3.83687      .   S
    Zr23   O24       1.70137      .   S
    N6     O24       3.84120  1_655   S
    Zr23   O25       1.70034      .   S
    N3     O25       3.83647      .   S
    Zr23   O26       2.71973      .   S
    N4     O26       4.69047  1_655   S
    Zr23   O27       2.72000      .   S
    N2     O27       4.69122      .   S
