# CIF file generated by openbabel 2.4.90, see http://openbabel.sf.net
data_I
_chemical_name_common ''
_cell_length_a 13.464
_cell_length_b 14.949
_cell_length_c 14.953
_cell_angle_alpha 89.953
_cell_angle_beta 89.982
_cell_angle_gamma 89.964
_space_group_name_H-M_alt 'P 1'
_space_group_name_Hall 'P 1'
loop_
    _symmetry_equiv_pos_as_xyz
    x,y,z
loop_
    _atom_site_label
    _atom_site_type_symbol
    _atom_site_fract_x
    _atom_site_fract_y
    _atom_site_fract_z
    _atom_site_occupancy
    Zr0     Zr   0.50003   0.74539   0.74510   1.000
    Zr1     Zr   0.00006   0.25500   0.25486   1.000
    Zr2     Zr   0.75005   0.75503   0.24511   1.000
    Zr3     Zr   0.25008   0.24510   0.75515   1.000
    Zr4     Zr   0.90980   0.79750   0.36219   1.000
    Zr5     Zr   0.09037   0.36237   0.79751   1.000
    Zr6     Zr   0.40974   0.20255   0.63789   1.000
    Zr7     Zr   0.59036   0.63790   0.20260   1.000
    Zr8     Zr   0.15978   0.13782   0.29742   1.000
    Zr9     Zr   0.34041   0.70261   0.86245   1.000
    Zr10    Zr   0.65981   0.86249   0.70255   1.000
    Zr11    Zr   0.84032   0.29752   0.13782   1.000
    Zr12    Zr   0.89975   0.84739   0.29382   1.000
    Zr13    Zr   0.85031   0.73445   0.38290   1.000
    Zr14    Zr   0.10036   0.29400   0.84742   1.000
    Zr15    Zr   0.14984   0.38294   0.73438   1.000
    Zr16    Zr   0.39972   0.15266   0.70627   1.000
    Zr17    Zr   0.35018   0.26560   0.61717   1.000
    Zr18    Zr   0.60034   0.70628   0.15271   1.000
    Zr19    Zr   0.64990   0.61717   0.26562   1.000
    Zr20    Zr   0.14964   0.20614   0.34727   1.000
    Zr21    Zr   0.10029   0.11712   0.23441   1.000
    Zr22    Zr   0.35045   0.65268   0.79419   1.000
    Zr23    Zr   0.39984   0.76573   0.88294   1.000
    Zr24    Zr   0.64975   0.79429   0.65257   1.000
    Zr25    Zr   0.60029   0.88304   0.76560   1.000
    Zr26    Zr   0.85039   0.34739   0.20611   1.000
    Zr27    Zr   0.89986   0.23447   0.11713   1.000
    O28     O    0.87009   0.26599   0.12748   1.000
    O29     O    0.94996   0.24473   0.18599   1.000
    O30     O    0.84536   0.32245   0.17197   1.000
    O31     O    0.59535   0.67209   0.17765   1.000
    O32     O    0.62013   0.62754   0.23411   1.000
    O33     O    0.92523   0.30119   0.23048   1.000
    O34     O    0.05018   0.18606   0.24463   1.000
    O35     O    0.13003   0.12747   0.26591   1.000
    O36     O    0.69997   0.68610   0.25536   1.000
    O37     O    0.80018   0.74474   0.31400   1.000
    O38     O    0.90478   0.82244   0.32800   1.000
    O39     O    0.15471   0.17198   0.32235   1.000
    O40     O    0.88005   0.76597   0.37254   1.000
    O41     O    0.37996   0.23408   0.62753   1.000
    O42     O    0.30013   0.25535   0.68616   1.000
    O43     O    0.40473   0.17760   0.67208   1.000
    O44     O    0.65478   0.82839   0.67756   1.000
    O45     O    0.63005   0.87277   0.73408   1.000
    O46     O    0.19996   0.31402   0.74476   1.000
    O47     O    0.12010   0.37266   0.76594   1.000
    O48     O    0.55016   0.81421   0.75535   1.000
    O49     O    0.44994   0.75556   0.81402   1.000
    O50     O    0.17522   0.26955   0.80128   1.000
    O51     O    0.34543   0.67764   0.82832   1.000
    O52     O    0.09537   0.32818   0.82246   1.000
    O53     O    0.37013   0.73417   0.87269   1.000
    O54     O    0.32490   0.19888   0.73071   1.000
    O55     O    0.07485   0.23057   0.30106   1.000
    N56     N    0.31116   0.45628   0.14791   1.000
    O57     O    0.42864   0.53214   0.17112   1.000
    O58     O    0.18457   0.37571   0.18013   1.000
    N59     N    0.43941   0.95643   0.35230   1.000
    O60     O    0.32175   0.03219   0.32901   1.000
    O61     O    0.56588   0.87581   0.32001   1.000
    N62     N    0.68915   0.14788   0.45624   1.000
    O63     O    0.81569   0.18016   0.37561   1.000
    O64     O    0.57158   0.17108   0.53212   1.000
    N65     N    0.74998   0.94732   0.05291   1.000
    O66     O    0.74999   0.88032   0.11989   1.000
    N67     N    0.24977   0.05286   0.94727   1.000
    O68     O    0.24989   0.11986   0.88032   1.000
    N69     N    0.56087   0.35232   0.95633   1.000
    O70     O    0.43438   0.31999   0.87579   1.000
    O71     O    0.67846   0.32907   0.03215   1.000
    N72     N    0.50058   0.55318   0.55330   1.000
    O73     O    0.50037   0.62017   0.62014   1.000
    N74     N    0.81108   0.54419   0.85208   1.000
    O75     O    0.92862   0.46827   0.82894   1.000
    O76     O    0.68450   0.62475   0.81988   1.000
    N77     N    0.06102   0.64785   0.04323   1.000
    O78     O    0.17860   0.67108   0.96781   1.000
    O79     O    0.93446   0.68017   0.12415   1.000
    N80     N    0.93926   0.04311   0.64790   1.000
    O81     O    0.82167   0.96775   0.67109   1.000
    O82     O    0.06576   0.12405   0.68026   1.000
    N83     N    0.18900   0.85205   0.54379   1.000
    O84     O    0.31556   0.81995   0.62439   1.000
    O85     O    0.07152   0.82892   0.46794   1.000
    N86     N    0.99998   0.44693   0.44696   1.000
    O87     O    0.00001   0.38004   0.38001   1.000
loop_
    _geom_bond_atom_site_label_1
    _geom_bond_atom_site_label_2
    _geom_bond_distance
    _geom_bond_site_symmetry_2
    _ccdc_geom_bond_type
    Zr27   O28       0.63763      .   S
    Zr11   O28       0.63763      .   S
    Zr27   O29       1.24087      .   S
    Zr1    O29       1.24087  1_455   S
    Zr11   O30       0.63605      .   S
    Zr26   O30       0.63605      .   S
    Zr18   O31       0.63608      .   S
    Zr7    O31       0.63608      .   S
    Zr7    O32       0.63766      .   S
    Zr19   O32       0.63766      .   S
    Zr26   O33       1.27434      .   S
    Zr1    O33       1.27434  1_455   S
    Zr21   O34       1.24094      .   S
    Zr1    O34       1.24094      .   S
    Zr21   O35       0.63762      .   S
    Zr8    O35       0.63762      .   S
    Zr2    O36       1.24117      .   S
    Zr19   O36       1.24117      .   S
    Zr2    O37       1.24118      .   S
    Zr13   O37       1.24118      .   S
    Zr12   O38       0.63609      .   S
    Zr4    O38       0.63609      .   S
    Zr8    O39       0.63609      .   S
    Zr20   O39       0.63609      .   S
    Zr4    O40       0.63761      .   S
    Zr13   O40       0.63761      .   S
    Zr17   O41       0.63762      .   S
    Zr6    O41       0.63762      .   S
    Zr17   O42       1.24146      .   S
    Zr3    O42       1.24146      .   S
    Zr6    O43       0.63613      .   S
    Zr16   O43       0.63613      .   S
    Zr24   O44       0.63602      .   S
    Zr10   O44       0.63602      .   S
    Zr10   O45       0.63740      .   S
    Zr25   O45       0.63740      .   S
    Zr15   O46       1.24097      .   S
    Zr3    O46       1.24097      .   S
    Zr15   O47       0.63760      .   S
    Zr5    O47       0.63760      .   S
    Zr0    O48       1.24046      .   S
    Zr25   O48       1.24046      .   S
    Zr0    O49       1.24085      .   S
    Zr23   O49       1.24085      .   S
    Zr3    O50       1.27471      .   S
    Zr14   O50       1.27471      .   S
    Zr22   O51       0.63603      .   S
    Zr9    O51       0.63603      .   S
    Zr5    O52       0.63610      .   S
    Zr14   O52       0.63610      .   S
    Zr9    O53       0.63762      .   S
    Zr23   O53       0.63762      .   S
    Zr16   O54       1.27474      .   S
    Zr3    O54       1.27474      .   S
    Zr20   O55       1.27443      .   S
    Zr1    O55       1.27443      .   S
    N56    O57       1.97784      .   S
    Zr7    O57       2.73276      .   S
    N56    O58       2.14218      .   S
    Zr1    O58       3.26753      .   S
    N59    O60       1.97772  1_565   S
    Zr8    O60       2.73259      .   S
    N59    O61       2.14077      .   S
    Zr2    O61       3.26474      .   S
    N62    O63       2.14192      .   S
    Zr1    O63       3.26674  1_455   S
    N62    O64       1.97796      .   S
    Zr6    O64       2.73293      .   S
    N65    O66       1.41586      .   S
    Zr2    O66       2.64723      .   S
    N67    O68       1.41551      .   S
    Zr3    O68       2.64621      .   S
    N69    O70       2.14190      .   S
    Zr3    O70       3.26713      .   S
    N69    O71       1.97795  1_556   S
    Zr11   O71       2.73288      .   S
    N72    O73       1.41546      .   S
    Zr0    O73       2.64599      .   S
    N74    O75       1.97748      .   S
    Zr5    O75       2.73234  1_455   S
    N74    O76       2.14106      .   S
    Zr0    O76       3.26559      .   S
    N77    O78       1.97423  1_554   S
    Zr9    O78       2.72917      .   S
    N77    O79       2.14467  1_455   S
    Zr2    O79       3.26889      .   S
    N80    O81       1.97420  1_545   S
    Zr10   O81       2.72916      .   S
    N80    O82       2.14551  1_655   S
    Zr3    O82       3.27075      .   S
    N83    O84       2.14138      .   S
    Zr0    O84       3.26577      .   S
    N83    O85       1.97752      .   S
    Zr4    O85       2.73252  1_655   S
    N86    O87       1.41549  1_655   S
    Zr1    O87       2.64614      .   S
