# CIF file generated by openbabel 2.4.90, see http://openbabel.sf.net
data_I
_chemical_name_common ''
_cell_length_a 13.464
_cell_length_b 14.949
_cell_length_c 14.953
_cell_angle_alpha 89.953
_cell_angle_beta 89.982
_cell_angle_gamma 89.964
_space_group_name_H-M_alt 'P 1'
_space_group_name_Hall 'P 1'
loop_
    _symmetry_equiv_pos_as_xyz
    x,y,z
loop_
    _atom_site_label
    _atom_site_type_symbol
    _atom_site_fract_x
    _atom_site_fract_y
    _atom_site_fract_z
    _atom_site_occupancy
    C0      C    0.50003   0.74539   0.74510   1.000
    C1      C    0.00006   0.25500   0.25486   1.000
    C2      C    0.75005   0.75503   0.24511   1.000
    C3      C    0.25008   0.24510   0.75515   1.000
    C4      C    0.42992   0.96755   0.68355   1.000
    C5      C    0.26054   0.00000   0.58396   1.000
    C6      C    0.29140   0.72338   0.61811   1.000
    C7      C    0.20279   0.94849   0.43700   1.000
    C8      C    0.05509   0.92090   0.34034   1.000
    C9      C    0.95930   0.71136   0.51563   1.000
    C10     C    0.10612   0.73911   0.61520   1.000
    C11     C    0.41717   0.54273   0.70667   1.000
    C12     C    0.41517   0.41889   0.59317   1.000
    C13     C    0.56965   0.68384   0.96737   1.000
    C14     C    0.73915   0.58436   0.00000   1.000
    C15     C    0.70898   0.61861   0.72340   1.000
    C16     C    0.79733   0.43747   0.94858   1.000
    C17     C    0.94509   0.34069   0.92097   1.000
    C18     C    0.04100   0.51597   0.71140   1.000
    C19     C    0.89413   0.61567   0.73926   1.000
    C20     C    0.58353   0.70669   0.54263   1.000
    C21     C    0.58626   0.59287   0.41900   1.000
    C22     C    0.50094   0.44527   0.44571   1.000
    C23     C    0.93037   0.03267   0.31655   1.000
    C24     C    0.76101   0.99602   0.41617   1.000
    C25     C    0.79132   0.27680   0.38176   1.000
    C26     C    0.70317   0.05179   0.56300   1.000
    C27     C    0.55533   0.07922   0.65974   1.000
    C28     C    0.45905   0.28866   0.48444   1.000
    C29     C    0.60602   0.26102   0.38482   1.000
    C30     C    0.91686   0.45761   0.29355   1.000
    C31     C    0.91442   0.58125   0.40725   1.000
    C32     C    0.07004   0.31687   0.03264   1.000
    C33     C    0.23952   0.41628   0.99608   1.000
    C34     C    0.20891   0.38172   0.27677   1.000
    C35     C    0.29733   0.56295   0.05172   1.000
    C36     C    0.44498   0.65968   0.07923   1.000
    C37     C    0.54097   0.48448   0.28883   1.000
    C38     C    0.39417   0.38484   0.26114   1.000
    C39     C    0.08325   0.29345   0.45742   1.000
    C40     C    0.08549   0.40704   0.58118   1.000
    C41     C    0.99985   0.55462   0.55478   1.000
    C42     C    0.68088   0.81682   0.46740   1.000
    C43     C    0.51158   0.91656   0.50422   1.000
    C44     C    0.54145   0.88197   0.22350   1.000
    C45     C    0.45299   0.06323   0.44843   1.000
    C46     C    0.30505   0.15978   0.42070   1.000
    C47     C    0.20959   0.98444   0.21142   1.000
    C48     C    0.35668   0.88501   0.23931   1.000
    C49     C    0.66699   0.79384   0.04242   1.000
    C50     C    0.66468   0.90757   0.91863   1.000
    C51     C    0.81957   0.53281   0.18358   1.000
    C52     C    0.98912   0.49598   0.08425   1.000
    C53     C    0.95898   0.77678   0.11850   1.000
    C54     C    0.04726   0.55177   0.93740   1.000
    C55     C    0.19507   0.57936   0.84075   1.000
    C56     C    0.29105   0.78854   0.00000   1.000
    C57     C    0.14412   0.76075   0.11562   1.000
    C58     C    0.83292   0.95785   0.20640   1.000
    C59     C    0.83530   0.08158   0.09265   1.000
    C60     C    0.75001   0.05514   0.94505   1.000
    C61     C    0.18075   0.18356   0.53303   1.000
    C62     C    0.01140   0.08418   0.49609   1.000
    C63     C    0.04115   0.11821   0.77686   1.000
    C64     C    0.95308   0.93738   0.55100   1.000
    C65     C    0.80531   0.84075   0.57925   1.000
    C66     C    0.70928   0.00000   0.78870   1.000
    C67     C    0.85620   0.11533   0.76098   1.000
    C68     C    0.16686   0.20647   0.95785   1.000
    C69     C    0.16431   0.09262   0.08154   1.000
    C70     C    0.31956   0.46737   0.81648   1.000
    C71     C    0.48877   0.50423   0.91600   1.000
    C72     C    0.45886   0.22340   0.88220   1.000
    C73     C    0.54697   0.44849   0.06310   1.000
    C74     C    0.69480   0.42086   0.15970   1.000
    C75     C    0.79091   0.21154   0.98449   1.000
    C76     C    0.64392   0.23932   0.88499   1.000
    C77     C    0.33293   0.04234   0.79382   1.000
    C78     C    0.33507   0.91849   0.90746   1.000
    C79     C    0.24959   0.94494   0.05502   1.000
    C80     C    0.37657   0.92206   0.65407   1.000
    C81     C    0.29359   0.94140   0.60448   1.000
    C82     C    0.30699   0.79427   0.62330   1.000
    C83     C    0.16336   0.84506   0.53144   1.000
    C84     C    0.14891   0.89726   0.45489   1.000
    C85     C    0.06662   0.88161   0.40081   1.000
    C86     C    0.99828   0.81408   0.42197   1.000
    C87     C    0.01364   0.76269   0.49917   1.000
    C88     C    0.09542   0.77790   0.55419   1.000
    C89     C    0.90980   0.79750   0.36219   1.000
    C90     C    0.45428   0.54989   0.64243   1.000
    C91     C    0.45298   0.48188   0.57871   1.000
    C92     C    0.62319   0.65440   0.92197   1.000
    C93     C    0.70623   0.60488   0.94141   1.000
    C94     C    0.69320   0.62377   0.79429   1.000
    C95     C    0.83680   0.53190   0.84510   1.000
    C96     C    0.85127   0.45536   0.89739   1.000
    C97     C    0.93352   0.40115   0.88165   1.000
    C98     C    0.00195   0.42231   0.81410   1.000
    C99     C    0.98657   0.49950   0.76270   1.000
    C100    C    0.90484   0.55465   0.77806   1.000
    C101    C    0.09037   0.36237   0.79751   1.000
    C102    C    0.54660   0.64239   0.54989   1.000
    C103    C    0.54832   0.57849   0.48205   1.000
    C104    C    0.50077   0.49690   0.49719   1.000
    C105    C    0.87692   0.07815   0.34600   1.000
    C106    C    0.79395   0.05880   0.39560   1.000
    C107    C    0.80706   0.20592   0.37660   1.000
    C108    C    0.66349   0.15511   0.46850   1.000
    C109    C    0.64916   0.10296   0.54518   1.000
    C110    C    0.56678   0.11852   0.59925   1.000
    C111    C    0.49827   0.18600   0.57810   1.000
    C112    C    0.51357   0.23738   0.50088   1.000
    C113    C    0.59542   0.22224   0.44585   1.000
    C114    C    0.40974   0.20255   0.63789   1.000
    C115    C    0.95388   0.45035   0.35781   1.000
    C116    C    0.95230   0.51824   0.42165   1.000
    C117    C    0.12348   0.34620   0.07814   1.000
    C118    C    0.20651   0.39570   0.05882   1.000
    C119    C    0.19323   0.37665   0.20590   1.000
    C120    C    0.33685   0.46854   0.15515   1.000
    C121    C    0.35123   0.54511   0.10295   1.000
    C122    C    0.43350   0.59921   0.11854   1.000
    C123    C    0.50190   0.57810   0.18607   1.000
    C124    C    0.48657   0.50090   0.23749   1.000
    C125    C    0.40480   0.44585   0.22233   1.000
    C126    C    0.59036   0.63790   0.20260   1.000
    C127    C    0.04619   0.35775   0.45025   1.000
    C128    C    0.04762   0.42150   0.51822   1.000
    C129    C    0.99992   0.50310   0.50319   1.000
    C130    C    0.62734   0.84627   0.42203   1.000
    C131    C    0.54440   0.89592   0.44143   1.000
    C132    C    0.55727   0.87686   0.29435   1.000
    C133    C    0.41375   0.96880   0.34514   1.000
    C134    C    0.39914   0.04528   0.39725   1.000
    C135    C    0.31676   0.09933   0.38149   1.000
    C136    C    0.24838   0.07810   0.31404   1.000
    C137    C    0.26396   0.00096   0.26271   1.000
    C138    C    0.34583   0.94600   0.27803   1.000
    C139    C    0.15978   0.13782   0.29742   1.000
    C140    C    0.70393   0.85813   0.04961   1.000
    C141    C    0.70245   0.92199   0.98162   1.000
    C142    C    0.87313   0.57821   0.15419   1.000
    C143    C    0.95620   0.55879   0.10474   1.000
    C144    C    0.94318   0.70591   0.12361   1.000
    C145    C    0.08677   0.65502   0.03184   1.000
    C146    C    0.10121   0.60290   0.95532   1.000
    C147    C    0.18351   0.61860   0.90120   1.000
    C148    C    0.25197   0.68601   0.92235   1.000
    C149    C    0.23659   0.73732   0.99953   1.000
    C150    C    0.15481   0.72205   0.05461   1.000
    C151    C    0.34041   0.70261   0.86245   1.000
    C152    C    0.79600   0.95065   0.14211   1.000
    C153    C    0.79752   0.01859   0.07820   1.000
    C154    C    0.74999   0.00354   0.99666   1.000
    C155    C    0.12717   0.15411   0.57838   1.000
    C156    C    0.04420   0.10464   0.55891   1.000
    C157    C    0.05703   0.12342   0.70602   1.000
    C158    C    0.91358   0.03168   0.65509   1.000
    C159    C    0.89914   0.95524   0.60289   1.000
    C160    C    0.81684   0.90115   0.61857   1.000
    C161    C    0.74834   0.92227   0.68602   1.000
    C162    C    0.76374   0.99937   0.73740   1.000
    C163    C    0.84552   0.05438   0.72219   1.000
    C164    C    0.65981   0.86249   0.70255   1.000
    C165    C    0.20376   0.14211   0.95061   1.000
    C166    C    0.20217   0.07821   0.01856   1.000
    C167    C    0.37305   0.42195   0.84604   1.000
    C168    C    0.45594   0.44141   0.89563   1.000
    C169    C    0.44303   0.29427   0.87695   1.000
    C170    C    0.58652   0.34516   0.96870   1.000
    C171    C    0.60094   0.39730   0.04522   1.000
    C172    C    0.68329   0.38162   0.09926   1.000
    C173    C    0.75177   0.31413   0.07810   1.000
    C174    C    0.73642   0.26282   0.00095   1.000
    C175    C    0.65459   0.27807   0.94596   1.000
    C176    C    0.84032   0.29752   0.13782   1.000
    C177    C    0.29591   0.04953   0.85809   1.000
    C178    C    0.29733   0.98153   0.92191   1.000
    C179    C    0.24965   0.99658   0.00346   1.000
    C180    C    0.38420   0.83031   0.66487   1.000
    C181    C    0.24926   0.85951   0.58525   1.000
    C182    C    0.61579   0.66523   0.83024   1.000
    C183    C    0.75081   0.58571   0.85958   1.000
    C184    C    0.50032   0.62894   0.62886   1.000
    C185    C    0.88439   0.16989   0.33511   1.000
    C186    C    0.74944   0.14068   0.41476   1.000
    C187    C    0.11591   0.33526   0.16985   1.000
    C188    C    0.25094   0.41475   0.14070   1.000
    C189    C    0.00003   0.37131   0.37127   1.000
    C190    C    0.63464   0.83533   0.33032   1.000
    C191    C    0.49977   0.91504   0.35962   1.000
    C192    C    0.86575   0.66995   0.16502   1.000
    C193    C    0.00000   0.64061   0.08561   1.000
    C194    C    0.74996   0.87161   0.12864   1.000
    C195    C    0.13444   0.16488   0.67011   1.000
    C196    C    0.99952   0.08544   0.64070   1.000
    C197    C    0.36571   0.33021   0.83533   1.000
    C198    C    0.50054   0.35957   0.91490   1.000
    C199    C    0.24993   0.12864   0.87161   1.000
    C200    C    0.89975   0.84739   0.29382   1.000
    C201    C    0.85031   0.73445   0.38290   1.000
    C202    C    0.10036   0.29400   0.84742   1.000
    C203    C    0.14984   0.38294   0.73438   1.000
    C204    C    0.39972   0.15266   0.70627   1.000
    C205    C    0.35018   0.26560   0.61717   1.000
    C206    C    0.60034   0.70628   0.15271   1.000
    C207    C    0.64990   0.61717   0.26562   1.000
    C208    C    0.14964   0.20614   0.34727   1.000
    C209    C    0.10029   0.11712   0.23441   1.000
    C210    C    0.35045   0.65268   0.79419   1.000
    C211    C    0.39984   0.76573   0.88294   1.000
    C212    C    0.64975   0.79429   0.65257   1.000
    C213    C    0.60029   0.88304   0.76560   1.000
    C214    C    0.85039   0.34739   0.20611   1.000
    C215    C    0.89986   0.23447   0.11713   1.000
    O216    O    0.26382   0.76293   0.99976   1.000
    O217    O    0.72269   0.59462   0.97070   1.000
    O218    O    0.74410   0.28848   0.03952   1.000
    O219    O    0.69551   0.27044   0.97345   1.000
    O220    O    0.76366   0.23718   0.99272   1.000
    O221    O    0.22591   0.03740   0.01101   1.000
    O222    O    0.24962   0.97076   0.02924   1.000
    O223    O    0.27349   0.98906   0.96268   1.000
    O224    O    0.18324   0.08542   0.05005   1.000
    O225    O    0.20297   0.11016   0.98458   1.000
    O226    O    0.12079   0.68853   0.04322   1.000
    O227    O    0.04339   0.64782   0.05872   1.000
    O228    O    0.09399   0.62896   0.99358   1.000
    O229    O    0.09676   0.33154   0.05539   1.000
    O230    O    0.68546   0.82599   0.04601   1.000
    O231    O    0.57395   0.42289   0.05416   1.000
    O232    O    0.64211   0.38946   0.07224   1.000
    O233    O    0.59373   0.37123   0.00696   1.000
    O234    O    0.72695   0.86487   0.08912   1.000
    O235    O    0.70319   0.89006   0.01561   1.000
    O236    O    0.32428   0.55403   0.07733   1.000
    O237    O    0.14947   0.74140   0.08511   1.000
    O238    O    0.19570   0.72968   0.02707   1.000
    O239    O    0.16499   0.37095   0.06848   1.000
    O240    O    0.22872   0.40522   0.09976   1.000
    O241    O    0.22302   0.40599   0.02745   1.000
    O242    O    0.71753   0.34788   0.08868   1.000
    O243    O    0.79605   0.30583   0.10796   1.000
    O244    O    0.11970   0.34073   0.12399   1.000
    O245    O    0.81641   0.05009   0.08542   1.000
    O246    O    0.79676   0.98462   0.11015   1.000
    O247    O    0.77376   0.01107   0.03743   1.000
    O248    O    0.43924   0.62945   0.09888   1.000
    O249    O    0.97266   0.52738   0.09449   1.000
    O250    O    0.97810   0.59970   0.09517   1.000
    O251    O    0.97159   0.67326   0.10461   1.000
    O252    O    0.68905   0.40124   0.12948   1.000
    O253    O    0.39237   0.57216   0.11074   1.000
    O254    O    0.34404   0.50682   0.12905   1.000
    O255    O    0.91466   0.56850   0.12946   1.000
    O256    O    0.87009   0.26599   0.12748   1.000
    O257    O    0.94996   0.24473   0.18599   1.000
    O258    O    0.95108   0.74134   0.12105   1.000
    O259    O    0.46770   0.58865   0.15230   1.000
    O260    O    0.90446   0.68793   0.14431   1.000
    O261    O    0.77298   0.91113   0.13537   1.000
    O262    O    0.75001   0.81332   0.18687   1.000
    O263    O    0.84536   0.32245   0.17197   1.000
    O264    O    0.29389   0.44164   0.14792   1.000
    O265    O    0.22209   0.39570   0.17330   1.000
    O266    O    0.81446   0.95425   0.17425   1.000
    O267    O    0.59535   0.67209   0.17765   1.000
    O268    O    0.86944   0.62408   0.15960   1.000
    O269    O    0.84635   0.55551   0.16888   1.000
    O270    O    0.37083   0.45720   0.18874   1.000
    O271    O    0.80790   0.71249   0.20506   1.000
    O272    O    0.15457   0.35596   0.18787   1.000
    O273    O    0.05799   0.29513   0.21235   1.000
    O274    O    0.54613   0.60800   0.19433   1.000
    O275    O    0.49423   0.53950   0.21178   1.000
    O276    O    0.62013   0.62754   0.23411   1.000
    O277    O    0.20107   0.37919   0.24133   1.000
    O278    O    0.92523   0.30119   0.23048   1.000
    O279    O    0.23677   0.99270   0.23706   1.000
    O280    O    0.44568   0.47338   0.22991   1.000
    O281    O    0.39949   0.41535   0.24173   1.000
    O282    O    0.54936   0.87941   0.25892   1.000
    O283    O    0.05018   0.18606   0.24463   1.000
    O284    O    0.13003   0.12747   0.26591   1.000
    O285    O    0.51377   0.49269   0.26316   1.000
    O286    O    0.35125   0.91551   0.25867   1.000
    O287    O    0.69997   0.68610   0.25536   1.000
    O288    O    0.69235   0.79518   0.28771   1.000
    O289    O    0.80018   0.74474   0.31400   1.000
    O290    O    0.94223   0.21244   0.29498   1.000
    O291    O    0.00005   0.31315   0.31306   1.000
    O292    O    0.30489   0.97348   0.27037   1.000
    O293    O    0.25617   0.03953   0.28837   1.000
    O294    O    0.37979   0.95740   0.31158   1.000
    O295    O    0.93537   0.45398   0.32568   1.000
    O296    O    0.90478   0.82244   0.32800   1.000
    O297    O    0.59596   0.85610   0.31233   1.000
    O298    O    0.52852   0.89595   0.32698   1.000
    O299    O    0.20408   0.10796   0.30573   1.000
    O300    O    0.15471   0.17198   0.32235   1.000
    O301    O    0.28257   0.08871   0.34776   1.000
    O302    O    0.90365   0.05541   0.33127   1.000
    O303    O    0.63099   0.84080   0.37617   1.000
    O304    O    0.88066   0.12402   0.34055   1.000
    O305    O    0.84573   0.18790   0.35585   1.000
    O306    O    0.06085   0.90125   0.37057   1.000
    O307    O    0.45676   0.94192   0.35238   1.000
    O308    O    0.40644   0.00704   0.37119   1.000
    O309    O    0.83544   0.06848   0.37080   1.000
    O310    O    0.97696   0.41083   0.36454   1.000
    O311    O    0.95309   0.48429   0.38973   1.000
    O312    O    0.52209   0.90548   0.40052   1.000
    O313    O    0.88005   0.76597   0.37254   1.000
    O314    O    0.95404   0.80579   0.39208   1.000
    O315    O    0.02311   0.36453   0.41076   1.000
    O316    O    0.79919   0.24136   0.37918   1.000
    O317    O    0.77825   0.17330   0.39568   1.000
    O318    O    0.35795   0.07231   0.38937   1.000
    O319    O    0.31091   0.12956   0.40109   1.000
    O320    O    0.60072   0.24163   0.41533   1.000
    O321    O    0.77170   0.09974   0.40518   1.000
    O322    O    0.77748   0.02741   0.40588   1.000
    O323    O    0.42606   0.05426   0.42284   1.000
    O324    O    0.03245   0.84784   0.41139   1.000
    O325    O    0.10777   0.88943   0.42785   1.000
    O326    O    0.93336   0.54975   0.41445   1.000
    O327    O    0.70646   0.14790   0.44163   1.000
    O328    O    0.56729   0.58568   0.45052   1.000
    O329    O    0.97611   0.51067   0.46242   1.000
    O330    O    0.00596   0.78838   0.46057   1.000
    O331    O    0.58587   0.87110   0.43173   1.000
    O332    O    0.65411   0.83154   0.44471   1.000
    O333    O    0.17585   0.92287   0.44594   1.000
    O334    O    0.52799   0.90624   0.47282   1.000
    O335    O    0.50086   0.47108   0.47145   1.000
    O336    O    0.62945   0.18867   0.45717   1.000
    O337    O    0.55449   0.22981   0.47336   1.000
    O338    O    0.06472   0.32560   0.45383   1.000
    O339    O    0.04691   0.38962   0.48423   1.000
    O340    O    0.15613   0.87116   0.49316   1.000
    O341    O    0.65632   0.12903   0.50684   1.000
    O342    O    0.52455   0.53770   0.48962   1.000
    O343    O    0.54746   0.61044   0.51597   1.000
    O344    O    0.48631   0.26302   0.49266   1.000
    O345    O    0.02780   0.09441   0.52750   1.000
    O346    O    0.47687   0.48939   0.53795   1.000
    O347    O    0.98647   0.73702   0.50740   1.000
    O348    O    0.05453   0.77029   0.52668   1.000
    O349    O    0.50592   0.21169   0.53949   1.000
    O350    O    0.02377   0.46230   0.51070   1.000
    O351    O    0.99989   0.52886   0.52898   1.000
    O352    O    0.06656   0.41427   0.54970   1.000
    O353    O    0.12939   0.81148   0.54281   1.000
    O354    O    0.20631   0.85229   0.55834   1.000
    O355    O    0.15396   0.16884   0.55570   1.000
    O356    O    0.56506   0.67454   0.54626   1.000
    O357    O    0.67616   0.07737   0.55409   1.000
    O358    O    0.60797   0.11074   0.57222   1.000
    O359    O    0.52346   0.63566   0.58937   1.000
    O360    O    0.92611   0.94631   0.57694   1.000
    O361    O    0.10077   0.75850   0.58469   1.000
    O362    O    0.08568   0.12938   0.56864   1.000
    O363    O    0.02186   0.09504   0.59981   1.000
    O364    O    0.53253   0.15226   0.58867   1.000
    O365    O    0.45400   0.19427   0.60799   1.000
    O366    O    0.13080   0.15950   0.62425   1.000
    O367    O    0.43407   0.45039   0.58594   1.000
    O368    O    0.45363   0.51589   0.61057   1.000
    O369    O    0.81108   0.87095   0.59891   1.000
    O370    O    0.27707   0.97070   0.59422   1.000
    O371    O    0.27143   0.90045   0.59487   1.000
    O372    O    0.27812   0.82689   0.60427   1.000
    O373    O    0.56106   0.09887   0.62949   1.000
    O374    O    0.85799   0.92820   0.61073   1.000
    O375    O    0.90636   0.99346   0.62899   1.000
    O376    O    0.33508   0.93173   0.62927   1.000
    O377    O    0.37996   0.23408   0.62753   1.000
    O378    O    0.30013   0.25535   0.68616   1.000
    O379    O    0.29919   0.75882   0.62070   1.000
    O380    O    0.78259   0.91171   0.65229   1.000
    O381    O    0.34559   0.81229   0.64408   1.000
    O382    O    0.47730   0.58941   0.63564   1.000
    O383    O    0.50017   0.68716   0.68698   1.000
    O384    O    0.40473   0.17760   0.67208   1.000
    O385    O    0.95655   0.05856   0.64789   1.000
    O386    O    0.02828   0.10443   0.67336   1.000
    O387    O    0.43572   0.54631   0.67455   1.000
    O388    O    0.65478   0.82839   0.67756   1.000
    O389    O    0.38039   0.87619   0.65947   1.000
    O390    O    0.40325   0.94480   0.66881   1.000
    O391    O    0.87955   0.04303   0.68864   1.000
    O392    O    0.44211   0.78785   0.70498   1.000
    O393    O    0.09574   0.14415   0.68806   1.000
    O394    O    0.19226   0.20499   0.71263   1.000
    O395    O    0.70408   0.89238   0.69428   1.000
    O396    O    0.75604   0.96082   0.71171   1.000
    O397    O    0.63005   0.87277   0.73408   1.000
    O398    O    0.04909   0.12082   0.74144   1.000
    O399    O    0.01379   0.50773   0.73705   1.000
    O400    O    0.80463   0.02687   0.72979   1.000
    O401    O    0.85086   0.08485   0.74158   1.000
    O402    O    0.70109   0.62119   0.75884   1.000
    O403    O    0.19996   0.31402   0.74476   1.000
    O404    O    0.12010   0.37266   0.76594   1.000
    O405    O    0.73651   0.99968   0.76305   1.000
    O406    O    0.89949   0.58516   0.75866   1.000
    O407    O    0.55016   0.81421   0.75535   1.000
    O408    O    0.55791   0.70531   0.78767   1.000
    O409    O    0.44994   0.75556   0.81402   1.000
    O410    O    0.30789   0.28765   0.79524   1.000
    O411    O    0.17522   0.26955   0.80128   1.000
    O412    O    0.25001   0.18687   0.81338   1.000
    O413    O    0.94571   0.52707   0.77038   1.000
    O414    O    0.99426   0.46090   0.78840   1.000
    O415    O    0.87082   0.54328   0.81158   1.000
    O416    O    0.31442   0.04593   0.82595   1.000
    O417    O    0.34543   0.67764   0.82832   1.000
    O418    O    0.65449   0.64450   0.81226   1.000
    O419    O    0.72200   0.60474   0.82693   1.000
    O420    O    0.04616   0.39234   0.80580   1.000
    O421    O    0.09537   0.32818   0.82246   1.000
    O422    O    0.96774   0.41173   0.84788   1.000
    O423    O    0.34631   0.44466   0.83126   1.000
    O424    O    0.61949   0.65982   0.87610   1.000
    O425    O    0.36938   0.37608   0.84068   1.000
    O426    O    0.40437   0.31224   0.85614   1.000
    O427    O    0.18929   0.59898   0.87097   1.000
    O428    O    0.79380   0.55881   0.85234   1.000
    O429    O    0.84404   0.49363   0.87124   1.000
    O430    O    0.41450   0.43168   0.87083   1.000
    O431    O    0.27292   0.08908   0.86485   1.000
    O432    O    0.29662   0.01553   0.89000   1.000
    O433    O    0.72852   0.59530   0.90049   1.000
    O434    O    0.37013   0.73417   0.87269   1.000
    O435    O    0.29619   0.69431   0.89240   1.000
    O436    O    0.22685   0.13538   0.91111   1.000
    O437    O    0.45094   0.25883   0.87957   1.000
    O438    O    0.47179   0.32692   0.89592   1.000
    O439    O    0.89240   0.42826   0.88952   1.000
    O440    O    0.93931   0.37092   0.90131   1.000
    O441    O    0.64925   0.25869   0.91547   1.000
    O442    O    0.47824   0.40049   0.90526   1.000
    O443    O    0.47236   0.47282   0.90581   1.000
    O444    O    0.82430   0.44641   0.92298   1.000
    O445    O    0.21774   0.65230   0.91177   1.000
    O446    O    0.14236   0.61075   0.92826   1.000
    O447    O    0.31620   0.95001   0.91468   1.000
    O448    O    0.54353   0.35237   0.94180   1.000
    O449    O    0.68356   0.91478   0.95012   1.000
    O450    O    0.66471   0.62964   0.93169   1.000
    O451    O    0.59642   0.66912   0.94467   1.000
    O452    O    0.24428   0.71166   0.96094   1.000
    O453    O    0.07424   0.57733   0.94636   1.000
    O454    O    0.75000   0.02934   0.97085   1.000
    O455    O    0.62055   0.31161   0.95733   1.000
    O456    O    0.18531   0.17429   0.95423   1.000
    O457    O    0.72622   0.96276   0.98914   1.000
    O458    O    0.32490   0.19888   0.73071   1.000
    O459    O    0.07485   0.23057   0.30106   1.000
loop_
    _geom_bond_atom_site_label_1
    _geom_bond_atom_site_label_2
    _geom_bond_distance
    _geom_bond_site_symmetry_2
    _ccdc_geom_bond_type
    C56    O216      0.53025  1_554   S
    C149   O216      0.53025      .   S
    C14    O217      0.51422  1_554   S
    C93    O217      0.51422      .   S
    C174   O218      0.70068      .   S
    C173   O218      0.70068      .   S
    C174   O219      0.69680  1_554   S
    C175   O219      0.69680      .   S
    C174   O220      0.54448  1_554   S
    C75    O220      0.54448      .   S
    C179   O221      0.69792  1_565   S
    C166   O221      0.69792      .   S
    C179   O222      0.54527      .   S
    C79    O222      0.54527      .   S
    C179   O223      0.69810  1_554   S
    C178   O223      0.69810      .   S
    C166   O224      0.54613      .   S
    C69    O224      0.54613      .   S
    C166   O225      0.69707  1_554   S
    C165   O225      0.69707      .   S
    C145   O226      0.70017      .   S
    C150   O226      0.70017      .   S
    C145   O227      0.71717      .   S
    C193   O227      0.71717      .   S
    C145   O228      0.69914  1_554   S
    C146   O228      0.69914      .   S
    C32    O229      0.54175      .   S
    C117   O229      0.54175      .   S
    C49    O230      0.54396      .   S
    C140   O230      0.54396      .   S
    C171   O231      0.54416      .   S
    C73    O231      0.54416      .   S
    C171   O232      0.69594      .   S
    C172   O232      0.69594      .   S
    C171   O233      0.69931      .   S
    C170   O233      0.69931  1_556   S
    C140   O234      0.67492      .   S
    C194   O234      0.67492      .   S
    C140   O235      0.69705      .   S
    C141   O235      0.69705  1_556   S
    C35    O236      0.54413      .   S
    C121   O236      0.54413      .   S
    C150   O237      0.54507      .   S
    C57    O237      0.54507      .   S
    C150   O238      0.69680      .   S
    C149   O238      0.69680  1_556   S
    C118   O239      0.68577      .   S
    C117   O239      0.68577      .   S
    C118   O240      0.69628      .   S
    C188   O240      0.69628      .   S
    C118   O241      0.54126      .   S
    C33    O241      0.54126  1_556   S
    C173   O242      0.70127      .   S
    C172   O242      0.70127      .   S
    C173   O243      0.75509      .   S
    C176   O243      0.75509      .   S
    C117   O244      0.69232      .   S
    C187   O244      0.69232      .   S
    C153   O245      0.54617      .   S
    C59    O245      0.54617      .   S
    C153   O246      0.69711  1_545   S
    C152   O246      0.69711      .   S
    C153   O247      0.69782      .   S
    C154   O247      0.69782  1_556   S
    C36    O248      0.54451      .   S
    C122   O248      0.54451      .   S
    C52    O249      0.54126      .   S
    C143   O249      0.54126      .   S
    C193   O250      0.69392  1_455   S
    C143   O250      0.69392      .   S
    C193   O251      0.68204  1_455   S
    C144   O251      0.68204      .   S
    C172   O252      0.54451      .   S
    C74    O252      0.54451      .   S
    C121   O253      0.69589      .   S
    C122   O253      0.69589      .   S
    C121   O254      0.69919      .   S
    C120   O254      0.69919      .   S
    C143   O255      0.68578      .   S
    C142   O255      0.68578      .   S
    C215   O256      0.63763      .   S
    C176   O256      0.63763      .   S
    C215   O257      1.24087      .   S
    C1     O257      1.24087  1_455   S
    C53    O258      0.54164      .   S
    C144   O258      0.54164      .   S
    C122   O259      0.70127      .   S
    C123   O259      0.70127      .   S
    C144   O260      0.66313      .   S
    C192   O260      0.66313      .   S
    C194   O261      0.67494      .   S
    C152   O261      0.67494      .   S
    C194   O262      1.23137      .   S
    C2     O262      1.23137      .   S
    C176   O263      0.63605      .   S
    C214   O263      0.63605      .   S
    C188   O264      0.71290      .   S
    C120   O264      0.71290      .   S
    C188   O265      0.68513      .   S
    C119   O265      0.68513      .   S
    C152   O266      0.54393      .   S
    C58    O266      0.54393      .   S
    C206   O267      0.63608      .   S
    C126   O267      0.63608      .   S
    C142   O268      0.69227      .   S
    C192   O268      0.69227      .   S
    C142   O269      0.54174      .   S
    C51    O269      0.54174      .   S
    C120   O270      0.70017      .   S
    C125   O270      0.70017      .   S
    C192   O271      1.17021      .   S
    C2     O271      1.17021      .   S
    C187   O272      0.66311      .   S
    C119   O272      0.66311      .   S
    C187   O273      1.17123      .   S
    C1     O273      1.17123      .   S
    C123   O274      0.75509      .   S
    C126   O274      0.75509      .   S
    C123   O275      0.70074      .   S
    C124   O275      0.70074      .   S
    C126   O276      0.63766      .   S
    C207   O276      0.63766      .   S
    C119   O277      0.54166      .   S
    C34    O277      0.54166      .   S
    C214   O278      1.27434      .   S
    C1     O278      1.27434  1_455   S
    C47    O279      0.54450      .   S
    C137   O279      0.54450  1_545   S
    C125   O280      0.69680      .   S
    C124   O280      0.69680      .   S
    C125   O281      0.54507      .   S
    C38    O281      0.54507      .   S
    C44    O282      0.54166      .   S
    C132   O282      0.54166      .   S
    C209   O283      1.24094      .   S
    C1     O283      1.24094      .   S
    C209   O284      0.63762      .   S
    C139   O284      0.63762      .   S
    C124   O285      0.54452      .   S
    C37    O285      0.54452      .   S
    C48    O286      0.54504      .   S
    C138   O286      0.54504      .   S
    C2     O287      1.24117      .   S
    C207   O287      1.24117      .   S
    C2     O288      1.17024      .   S
    C190   O288      1.17024      .   S
    C2     O289      1.24118      .   S
    C201   O289      1.24118      .   S
    C1     O290      1.17080  1_455   S
    C185   O290      1.17080      .   S
    C1     O291      1.23065      .   S
    C189   O291      1.23065      .   S
    C137   O292      0.69664  1_545   S
    C138   O292      0.69664      .   S
    C137   O293      0.70070      .   S
    C136   O293      0.70070      .   S
    C138   O294      0.70018      .   S
    C133   O294      0.70018      .   S
    C30    O295      0.54396      .   S
    C115   O295      0.54396      .   S
    C200   O296      0.63609      .   S
    C89    O296      0.63609      .   S
    C132   O297      0.66310      .   S
    C190   O297      0.66310      .   S
    C132   O298      0.68512      .   S
    C191   O298      0.68512      .   S
    C139   O299      0.75503      .   S
    C136   O299      0.75503      .   S
    C139   O300      0.63609      .   S
    C208   O300      0.63609      .   S
    C136   O301      0.70125      .   S
    C135   O301      0.70125      .   S
    C23    O302      0.54175      .   S
    C105   O302      0.54175      .   S
    C190   O303      0.69232      .   S
    C130   O303      0.69232      .   S
    C185   O304      0.69228      .   S
    C105   O304      0.69228      .   S
    C185   O305      0.66302      .   S
    C107   O305      0.66302      .   S
    C8     O306      0.54448      .   S
    C85    O306      0.54448      .   S
    C133   O307      0.71287      .   S
    C191   O307      0.71287      .   S
    C133   O308      0.69899  1_565   S
    C134   O308      0.69899      .   S
    C105   O309      0.68578      .   S
    C106   O309      0.68578      .   S
    C115   O310      0.67482      .   S
    C189   O310      0.67482  1_455   S
    C115   O311      0.69699      .   S
    C116   O311      0.69699      .   S
    C191   O312      0.69623      .   S
    C131   O312      0.69623      .   S
    C89    O313      0.63761      .   S
    C201   O313      0.63761      .   S
    C89    O314      0.75516      .   S
    C86    O314      0.75516      .   S
    C189   O315      0.67492      .   S
    C127   O315      0.67492      .   S
    C107   O316      0.54166      .   S
    C25    O316      0.54166      .   S
    C107   O317      0.68526      .   S
    C186   O317      0.68526      .   S
    C135   O318      0.69592      .   S
    C134   O318      0.69592      .   S
    C135   O319      0.54451      .   S
    C46    O319      0.54451      .   S
    C29    O320      0.54506      .   S
    C113   O320      0.54506      .   S
    C106   O321      0.69628      .   S
    C186   O321      0.69628      .   S
    C106   O322      0.54126      .   S
    C24    O322      0.54126  1_565   S
    C134   O323      0.54414      .   S
    C45    O323      0.54414      .   S
    C85    O324      0.70111      .   S
    C86    O324      0.70111  1_655   S
    C85    O325      0.69597      .   S
    C84    O325      0.69597      .   S
    C31    O326      0.54610      .   S
    C116   O326      0.54610      .   S
    C186   O327      0.71256      .   S
    C108   O327      0.71256      .   S
    C21    O328      0.54669      .   S
    C103   O328      0.54669      .   S
    C116   O329      0.69802      .   S
    C129   O329      0.69802      .   S
    C86    O330      0.70075  1_655   S
    C87    O330      0.70075      .   S
    C130   O331      0.68580      .   S
    C131   O331      0.68580      .   S
    C130   O332      0.54153      .   S
    C42    O332      0.54153      .   S
    C7     O333      0.54418      .   S
    C84    O333      0.54418      .   S
    C131   O334      0.54130      .   S
    C43    O334      0.54130      .   S
    C22    O335      0.54526      .   S
    C104   O335      0.54526      .   S
    C113   O336      0.70004      .   S
    C108   O336      0.70004      .   S
    C113   O337      0.69681      .   S
    C112   O337      0.69681      .   S
    C127   O338      0.54397      .   S
    C39    O338      0.54397      .   S
    C127   O339      0.69702      .   S
    C128   O339      0.69702      .   S
    C84    O340      0.69919      .   S
    C83    O340      0.69919      .   S
    C108   O341      0.69969      .   S
    C109   O341      0.69969      .   S
    C103   O342      0.69811      .   S
    C104   O342      0.69811      .   S
    C103   O343      0.69702      .   S
    C102   O343      0.69702      .   S
    C28    O344      0.54450      .   S
    C112   O344      0.54450      .   S
    C62    O345      0.54128      .   S
    C156   O345      0.54128      .   S
    C104   O346      0.69815      .   S
    C91    O346      0.69815      .   S
    C87    O347      0.54430  1_455   S
    C9     O347      0.54430      .   S
    C87    O348      0.69678      .   S
    C88    O348      0.69678      .   S
    C112   O349      0.70074      .   S
    C111   O349      0.70074      .   S
    C129   O350      0.69812  1_655   S
    C128   O350      0.69812      .   S
    C129   O351      0.54526      .   S
    C41    O351      0.54526      .   S
    C128   O352      0.54610      .   S
    C40    O352      0.54610      .   S
    C83    O353      0.70016      .   S
    C88    O353      0.70016      .   S
    C83    O354      0.71292      .   S
    C181   O354      0.71292      .   S
    C61    O355      0.54172      .   S
    C155   O355      0.54172      .   S
    C20    O356      0.54396      .   S
    C102   O356      0.54396      .   S
    C109   O357      0.54407      .   S
    C26    O357      0.54407      .   S
    C109   O358      0.69593      .   S
    C110   O358      0.69593      .   S
    C102   O359      0.67498      .   S
    C184   O359      0.67498      .   S
    C64    O360      0.54785      .   S
    C159   O360      0.54785      .   S
    C88    O361      0.54508      .   S
    C10    O361      0.54508      .   S
    C156   O362      0.68577      .   S
    C155   O362      0.68577      .   S
    C156   O363      0.69627      .   S
    C196   O363      0.69627  1_655   S
    C111   O364      0.70125      .   S
    C110   O364      0.70125      .   S
    C111   O365      0.75512      .   S
    C114   O365      0.75512      .   S
    C155   O366      0.69234      .   S
    C195   O366      0.69234      .   S
    C91    O367      0.54608      .   S
    C12    O367      0.54608      .   S
    C91    O368      0.69703      .   S
    C90    O368      0.69703      .   S
    C65    O369      0.54453      .   S
    C160   O369      0.54453      .   S
    C5     O370      0.51449  1_545   S
    C81    O370      0.51449      .   S
    C181   O371      0.69623      .   S
    C81    O371      0.69623      .   S
    C181   O372      0.68511      .   S
    C82    O372      0.68511      .   S
    C110   O373      0.54455      .   S
    C27    O373      0.54455      .   S
    C159   O374      0.69595      .   S
    C160   O374      0.69595      .   S
    C159   O375      0.69900      .   S
    C158   O375      0.69900  1_545   S
    C81    O376      0.68581      .   S
    C80    O376      0.68581      .   S
    C205   O377      0.63762      .   S
    C114   O377      0.63762      .   S
    C205   O378      1.24146      .   S
    C3     O378      1.24146      .   S
    C6     O379      0.54165      .   S
    C82    O379      0.54165      .   S
    C160   O380      0.70127      .   S
    C161   O380      0.70127      .   S
    C82    O381      0.66318      .   S
    C180   O381      0.66318      .   S
    C184   O382      0.67491      .   S
    C90    O382      0.67491      .   S
    C184   O383      1.23053      .   S
    C0     O383      1.23053      .   S
    C114   O384      0.63613      .   S
    C204   O384      0.63613      .   S
    C196   O385      0.71273      .   S
    C158   O385      0.71273      .   S
    C196   O386      0.68518  1_655   S
    C157   O386      0.68518      .   S
    C90    O387      0.54394      .   S
    C11    O387      0.54394      .   S
    C212   O388      0.63602      .   S
    C164   O388      0.63602      .   S
    C80    O389      0.69228      .   S
    C180   O389      0.69228      .   S
    C80    O390      0.54176      .   S
    C4     O390      0.54176      .   S
    C158   O391      0.70018      .   S
    C163   O391      0.70018      .   S
    C180   O392      1.17037      .   S
    C0     O392      1.17037      .   S
    C195   O393      0.66309      .   S
    C157   O393      0.66309      .   S
    C195   O394      1.17102      .   S
    C3     O394      1.17102      .   S
    C161   O395      0.75517      .   S
    C164   O395      0.75517      .   S
    C161   O396      0.70060      .   S
    C162   O396      0.70060      .   S
    C164   O397      0.63740      .   S
    C213   O397      0.63740      .   S
    C157   O398      0.54165      .   S
    C63    O398      0.54165      .   S
    C18    O399      0.54443      .   S
    C99    O399      0.54443  1_655   S
    C163   O400      0.69661      .   S
    C162   O400      0.69661  1_565   S
    C163   O401      0.54505      .   S
    C67    O401      0.54505      .   S
    C15    O402      0.54192      .   S
    C94    O402      0.54192      .   S
    C203   O403      1.24097      .   S
    C3     O403      1.24097      .   S
    C203   O404      0.63760      .   S
    C101   O404      0.63760      .   S
    C162   O405      0.53056      .   S
    C66    O405      0.53056  1_545   S
    C19    O406      0.54507      .   S
    C100   O406      0.54507      .   S
    C0     O407      1.24046      .   S
    C213   O407      1.24046      .   S
    C0     O408      1.17072      .   S
    C182   O408      1.17072      .   S
    C0     O409      1.24085      .   S
    C211   O409      1.24085      .   S
    C3     O410      1.17109      .   S
    C197   O410      1.17109      .   S
    C3     O411      1.27471      .   S
    C202   O411      1.27471      .   S
    C3     O412      1.23070      .   S
    C199   O412      1.23070      .   S
    C99    O413      0.69689      .   S
    C100   O413      0.69689      .   S
    C99    O414      0.70059      .   S
    C98    O414      0.70059  1_455   S
    C100   O415      0.69983      .   S
    C95    O415      0.69983      .   S
    C77    O416      0.54394      .   S
    C177   O416      0.54394      .   S
    C210   O417      0.63603      .   S
    C151   O417      0.63603      .   S
    C94    O418      0.66309      .   S
    C182   O418      0.66309      .   S
    C94    O419      0.68511      .   S
    C183   O419      0.68511      .   S
    C101   O420      0.75503      .   S
    C98    O420      0.75503      .   S
    C101   O421      0.63610      .   S
    C202   O421      0.63610      .   S
    C98    O422      0.70152  1_455   S
    C97    O422      0.70152      .   S
    C70    O423      0.54176      .   S
    C167   O423      0.54176      .   S
    C182   O424      0.69232      .   S
    C92    O424      0.69232      .   S
    C197   O425      0.69230      .   S
    C167   O425      0.69230      .   S
    C197   O426      0.66314      .   S
    C169   O426      0.66314      .   S
    C55    O427      0.54449      .   S
    C147   O427      0.54449      .   S
    C95    O428      0.71299      .   S
    C183   O428      0.71299      .   S
    C95    O429      0.69945      .   S
    C96    O429      0.69945      .   S
    C167   O430      0.68581      .   S
    C168   O430      0.68581      .   S
    C177   O431      0.67493      .   S
    C199   O431      0.67493      .   S
    C177   O432      0.69688      .   S
    C178   O432      0.69688  1_565   S
    C183   O433      0.69631      .   S
    C93    O433      0.69631      .   S
    C151   O434      0.63762      .   S
    C211   O434      0.63762      .   S
    C151   O435      0.75516      .   S
    C148   O435      0.75516      .   S
    C199   O436      0.67494      .   S
    C165   O436      0.67494      .   S
    C169   O437      0.54163      .   S
    C72    O437      0.54163      .   S
    C169   O438      0.68500      .   S
    C198   O438      0.68500      .   S
    C97    O439      0.69593      .   S
    C96    O439      0.69593      .   S
    C97    O440      0.54451      .   S
    C17    O440      0.54451      .   S
    C76    O441      0.54504      .   S
    C175   O441      0.54504      .   S
    C168   O442      0.69620      .   S
    C198   O442      0.69620      .   S
    C168   O443      0.54107      .   S
    C71    O443      0.54107      .   S
    C96    O444      0.54416      .   S
    C16    O444      0.54416      .   S
    C147   O445      0.70125      .   S
    C148   O445      0.70125      .   S
    C147   O446      0.69593      .   S
    C146   O446      0.69593      .   S
    C78    O447      0.54611      .   S
    C178   O447      0.54611      .   S
    C198   O448      0.71302      .   S
    C170   O448      0.71302      .   S
    C50    O449      0.54609      .   S
    C141   O449      0.54609      .   S
    C92    O450      0.68580      .   S
    C93    O450      0.68580      .   S
    C92    O451      0.54176      .   S
    C13    O451      0.54176      .   S
    C148   O452      0.70075      .   S
    C149   O452      0.70075      .   S
    C54    O453      0.54422      .   S
    C146   O453      0.54422      .   S
    C60    O454      0.54532      .   S
    C154   O454      0.54532      .   S
    C175   O455      0.70015      .   S
    C170   O455      0.70015      .   S
    C165   O456      0.54397      .   S
    C68    O456      0.54397      .   S
    C141   O457      0.69789      .   S
    C154   O457      0.69789  1_545   S
    C204   O458      1.27474      .   S
    C3     O458      1.27474      .   S
    C208   O459      1.27443      .   S
    C1     O459      1.27443      .   S
