# CIF file generated by openbabel 2.4.90, see http://openbabel.sf.net
data_I
_chemical_name_common ''
_cell_length_a 13.59
_cell_length_b 13.596
_cell_length_c 13.604
_cell_angle_alpha 87.248
_cell_angle_beta 87.32
_cell_angle_gamma 87.467
_space_group_name_H-M_alt 'P 1'
_space_group_name_Hall 'P 1'
loop_
    _symmetry_equiv_pos_as_xyz
    x,y,z
loop_
    _atom_site_label
    _atom_site_type_symbol
    _atom_site_fract_x
    _atom_site_fract_y
    _atom_site_fract_z
    _atom_site_occupancy
    Cu0     Cu   0.02120   0.02109   0.58377   1.000
    Cu1     Cu   0.58387   0.02156   0.01927   1.000
    Cu2     Cu   0.41619   0.98191   0.98036   1.000
    Cu3     Cu   0.98182   0.98187   0.41636   1.000
    Cu4     Cu   0.97862   0.41719   0.98070   1.000
    C5      C    0.00645   0.55148   0.81692   1.000
    C6      C    0.81834   0.00729   0.55105   1.000
    C7      C    0.54956   0.81840   0.00802   1.000
    Cu8     Cu   0.01836   0.58481   0.01976   1.000
    C9      C    0.45076   0.99532   0.18316   1.000
    C10     C    0.99317   0.18480   0.44968   1.000
    C11     C    0.18156   0.44992   0.99306   1.000
    C12     C    0.99117   0.45136   0.18364   1.000
    C13     C    0.18473   0.99534   0.44948   1.000
    C14     C    0.44878   0.18475   0.99214   1.000
    C15     C    0.55104   0.00786   0.81670   1.000
    C16     C    0.00899   0.81818   0.55044   1.000
    C17     C    0.81534   0.55190   0.00730   1.000
    O18     O    0.02450   0.61736   0.87680   1.000
    O19     O    0.98687   0.46195   0.84011   1.000
    O20     O    0.87834   0.02541   0.61688   1.000
    O21     O    0.84145   0.98791   0.46163   1.000
    O22     O    0.61622   0.87847   0.02391   1.000
    O23     O    0.45948   0.84138   0.99084   1.000
    O24     O    0.38399   0.97914   0.12348   1.000
    O25     O    0.54079   0.01273   0.15983   1.000
    O26     O    0.97523   0.12488   0.38375   1.000
    O27     O    0.01281   0.16168   0.53909   1.000
    O28     O    0.12148   0.38389   0.97522   1.000
    O29     O    0.15856   0.53939   0.01246   1.000
    O30     O    0.97477   0.38485   0.12380   1.000
    O31     O    0.00874   0.54137   0.16047   1.000
    O32     O    0.12460   0.97919   0.38313   1.000
    O33     O    0.16186   0.01272   0.53943   1.000
    O34     O    0.38300   0.12448   0.97415   1.000
    O35     O    0.53838   0.16208   0.01146   1.000
    O36     O    0.61687   0.02630   0.87660   1.000
    O37     O    0.46148   0.98838   0.83980   1.000
    O38     O    0.02530   0.87824   0.61675   1.000
    O39     O    0.99171   0.84123   0.46044   1.000
    O40     O    0.87564   0.61815   0.02370   1.000
    O41     O    0.83804   0.46198   0.98952   1.000
    Og42    Og   0.00683   0.56190   0.78127   1.000
    Og43    Og   0.78266   0.00753   0.56138   1.000
    Og44    Og   0.55983   0.78274   0.00818   1.000
    Og45    Og   0.44050   0.99509   0.21881   1.000
    Og46    Og   0.99279   0.22047   0.43935   1.000
    Og47    Og   0.21724   0.43968   0.99276   1.000
    Og48    Og   0.99106   0.44101   0.21928   1.000
    Og49    Og   0.22038   0.99510   0.43909   1.000
    Og50    Og   0.43827   0.22034   0.99198   1.000
    Og51    Og   0.56155   0.00800   0.78109   1.000
    Og52    Og   0.00901   0.78251   0.56085   1.000
    Og53    Og   0.77971   0.56233   0.00756   1.000
loop_
    _geom_bond_atom_site_label_1
    _geom_bond_atom_site_label_2
    _geom_bond_distance
    _geom_bond_site_symmetry_2
    _ccdc_geom_bond_type
    C17    O40       1.27834      .   S
    C17    O41       1.27921  1_554   S
    C7     O22       1.27876      .   S
    C7     O23       1.27933  1_554   S
    O35    Cu1       1.98143      .   S
    O35    C14       1.27892  1_554   S
    O29    Cu8       1.97631      .   S
    O29    C11       1.27921  1_554   S
    Cu1    O22       1.97415  1_545   S
    Cu1    O25       1.97310      .   S
    Cu1    O36       1.97015  1_554   S
    Cu8    O40       1.97102  1_455   S
    Cu8    O31       1.97611      .   S
    Cu8    O18       1.97246  1_554   S
    O24    C9        1.27857      .   S
    O24    Cu2       1.97446  1_554   S
    O30    C12       1.27893      .   S
    O30    Cu4       1.97388  1_554   S
    O25    C9        1.27894  1_545   S
    O31    C12       1.27889  1_455   S
    O32    Cu3       1.97079  1_455   S
    O32    C13       1.27856      .   S
    O26    Cu3       1.97250  1_545   S
    O26    C10       1.27895      .   S
    Cu3    O39       1.97712      .   S
    Cu3    O21       1.97637      .   S
    C13    O33       1.27887  1_565   S
    C10    O27       1.27893  1_655   S
    O39    C16       1.27906  1_655   S
    O21    C6        1.27890  1_565   S
    O27    Cu0       1.97784      .   S
    O33    Cu0       1.97743      .   S
    C16    O38       1.27871      .   S
    C6     O20       1.27860      .   S
    Cu0    O38       1.97122  1_545   S
    Cu0    O20       1.97137  1_455   S
    C15    O37       1.27875  1_545   S
    C15    O36       1.27866      .   S
    C5     O19       1.27897  1_455   S
    C5     O18       1.27836      .   S
    O37    Cu2       1.98029      .   S
    O19    Cu4       1.97866      .   S
    O34    Cu2       1.96938  1_545   S
    O34    C14       1.27861      .   S
    O28    Cu4       1.97284  1_455   S
    O28    C11       1.27895      .   S
    Cu2    O23       1.97469      .   S
    Cu4    O41       1.97934      .   S
    Cu8    Cu4       2.45342  1_454   S
    Cu0    Cu3       2.45220  1_445   S
    Cu1    Cu2       2.45204  1_544   S
    C5     Og42      0.49859      .   S
    C6     Og43      0.49842      .   S
    C7     Og44      0.49847      .   S
    C9     Og45      0.49824      .   S
    C10    Og46      0.49831      .   S
    C11    Og47      0.49850      .   S
    C12    Og48      0.49829      .   S
    C13    Og49      0.49817      .   S
    C14    Og50      0.49839      .   S
    C15    Og51      0.49849      .   S
    C16    Og52      0.49854      .   S
    C17    Og53      0.49841      .   S
