# CIF file generated by openbabel 2.4.90, see http://openbabel.sf.net
data_I
_chemical_name_common ''
_cell_length_a 13.59
_cell_length_b 13.596
_cell_length_c 13.604
_cell_angle_alpha 87.248
_cell_angle_beta 87.32
_cell_angle_gamma 87.467
_space_group_name_H-M_alt 'P 1'
_space_group_name_Hall 'P 1'
loop_
    _symmetry_equiv_pos_as_xyz
    x,y,z
loop_
    _atom_site_label
    _atom_site_type_symbol
    _atom_site_fract_x
    _atom_site_fract_y
    _atom_site_fract_z
    _atom_site_occupancy
    C0      C    0.00645   0.55148   0.81692   1.000
    C1      C    0.81834   0.00729   0.55105   1.000
    C2      C    0.54956   0.81840   0.00802   1.000
    C3      C    0.45076   0.99532   0.18316   1.000
    C4      C    0.99317   0.18480   0.44968   1.000
    C5      C    0.18156   0.44992   0.99306   1.000
    C6      C    0.99117   0.45136   0.18364   1.000
    C7      C    0.18473   0.99534   0.44948   1.000
    C8      C    0.44878   0.18475   0.99214   1.000
    C9      C    0.55104   0.00786   0.81670   1.000
    C10     C    0.00899   0.81818   0.55044   1.000
    C11     C    0.81534   0.55190   0.00730   1.000
