# CIF file generated by openbabel 2.4.90, see http://openbabel.sf.net
data_I
_chemical_name_common ''
_cell_length_a 13.59
_cell_length_b 13.596
_cell_length_c 13.604
_cell_angle_alpha 87.248
_cell_angle_beta 87.32
_cell_angle_gamma 87.467
_space_group_name_H-M_alt 'P 1'
_space_group_name_Hall 'P 1'
loop_
    _symmetry_equiv_pos_as_xyz
    x,y,z
loop_
    _atom_site_label
    _atom_site_type_symbol
    _atom_site_fract_x
    _atom_site_fract_y
    _atom_site_fract_z
    _atom_site_occupancy
    Zr0     Zr   0.01836   0.58481   0.01976   1.000
    Zr1     Zr   0.02120   0.02109   0.58377   1.000
    Zr2     Zr   0.58387   0.02156   0.01927   1.000
    Zr3     Zr   0.41619   0.98191   0.98036   1.000
    Zr4     Zr   0.98182   0.98187   0.41636   1.000
    Zr5     Zr   0.97862   0.41719   0.98070   1.000
    Zr6     Zr   0.00645   0.55148   0.81692   1.000
    Zr7     Zr   0.81834   0.00729   0.55105   1.000
    Zr8     Zr   0.54956   0.81840   0.00802   1.000
    Zr9     Zr   0.45076   0.99532   0.18316   1.000
    Zr10    Zr   0.99317   0.18480   0.44968   1.000
    Zr11    Zr   0.18156   0.44992   0.99306   1.000
    Zr12    Zr   0.99117   0.45136   0.18364   1.000
    Zr13    Zr   0.18473   0.99534   0.44948   1.000
    Zr14    Zr   0.44878   0.18475   0.99214   1.000
    Zr15    Zr   0.55104   0.00786   0.81670   1.000
    Zr16    Zr   0.00899   0.81818   0.55044   1.000
    Zr17    Zr   0.81534   0.55190   0.00730   1.000
    Zr18    Zr   0.02450   0.61736   0.87680   1.000
    Zr19    Zr   0.98687   0.46195   0.84011   1.000
    Zr20    Zr   0.87834   0.02541   0.61688   1.000
    Zr21    Zr   0.84145   0.98791   0.46163   1.000
    Zr22    Zr   0.61622   0.87847   0.02391   1.000
    Zr23    Zr   0.45948   0.84138   0.99084   1.000
    Zr24    Zr   0.38399   0.97914   0.12348   1.000
    Zr25    Zr   0.54079   0.01273   0.15983   1.000
    Zr26    Zr   0.97523   0.12488   0.38375   1.000
    Zr27    Zr   0.01281   0.16168   0.53909   1.000
    Zr28    Zr   0.12148   0.38389   0.97522   1.000
    Zr29    Zr   0.15856   0.53939   0.01246   1.000
    Zr30    Zr   0.97477   0.38485   0.12380   1.000
    Zr31    Zr   0.00874   0.54137   0.16047   1.000
    Zr32    Zr   0.12460   0.97919   0.38313   1.000
    Zr33    Zr   0.16186   0.01272   0.53943   1.000
    Zr34    Zr   0.38300   0.12448   0.97415   1.000
    Zr35    Zr   0.53838   0.16208   0.01146   1.000
    Zr36    Zr   0.61687   0.02630   0.87660   1.000
    Zr37    Zr   0.46148   0.98838   0.83980   1.000
    Zr38    Zr   0.02530   0.87824   0.61675   1.000
    Zr39    Zr   0.99171   0.84123   0.46044   1.000
    Zr40    Zr   0.87564   0.61815   0.02370   1.000
    Zr41    Zr   0.83804   0.46198   0.98952   1.000
    O42     O    0.84549   0.58503   0.01550   1.000
    O43     O    0.82669   0.50694   0.99841   1.000
    O44     O    0.58289   0.84843   0.01597   1.000
    O45     O    0.50452   0.82989   0.99943   1.000
    O46     O    0.56113   0.09182   0.01537   1.000
    O47     O    0.49358   0.17341   0.00180   1.000
    O48     O    0.08846   0.56210   0.01611   1.000
    O49     O    0.17006   0.49466   0.00276   1.000
    O50     O    0.60005   0.95001   0.02159   1.000
    O51     O    0.56233   0.01715   0.08955   1.000
    O52     O    0.60037   0.02393   0.94794   1.000
    O53     O    0.94700   0.60148   0.02173   1.000
    O54     O    0.01355   0.56309   0.09012   1.000
    O55     O    0.02143   0.60108   0.94828   1.000
    O56     O    0.41737   0.98723   0.15332   1.000
    O57     O    0.40009   0.98053   0.05192   1.000
    O58     O    0.98297   0.41811   0.15372   1.000
    O59     O    0.97670   0.40102   0.05225   1.000
    O60     O    0.49577   0.00403   0.17150   1.000
    O61     O    0.99995   0.49637   0.17206   1.000
    O62     O    0.05321   0.98053   0.39975   1.000
    O63     O    0.15466   0.98726   0.41631   1.000
    O64     O    0.97852   0.05338   0.40006   1.000
    O65     O    0.98420   0.15484   0.41672   1.000
    O66     O    0.98676   0.91155   0.43840   1.000
    O67     O    0.91163   0.98489   0.43900   1.000
    O68     O    0.17329   0.00403   0.49446   1.000
    O69     O    0.00299   0.17324   0.49439   1.000
    O70     O    0.00035   0.82970   0.50544   1.000
    O71     O    0.82990   0.99760   0.50634   1.000
    O72     O    0.01700   0.09138   0.56143   1.000
    O73     O    0.09153   0.01690   0.56160   1.000
    O74     O    0.01714   0.84821   0.58360   1.000
    O75     O    0.84834   0.01635   0.58397   1.000
    O76     O    0.02325   0.94966   0.60026   1.000
    O77     O    0.94977   0.02325   0.60033   1.000
    O78     O    0.50626   0.99812   0.82825   1.000
    O79     O    0.58396   0.01708   0.84665   1.000
    O80     O    0.99666   0.50671   0.82852   1.000
    O81     O    0.01548   0.58442   0.84686   1.000
    O82     O    0.43883   0.98515   0.91008   1.000
    O83     O    0.98274   0.43957   0.91041   1.000
    O84     O    0.39960   0.05320   0.97725   1.000
    O85     O    0.41589   0.15461   0.98315   1.000
    O86     O    0.05005   0.40054   0.97796   1.000
    O87     O    0.15152   0.41691   0.98414   1.000
    O88     O    0.43783   0.91165   0.98560   1.000
    O89     O    0.90833   0.43959   0.98511   1.000
    O90     O    0.99849   0.50100   0.00023   1.000
    O91     O    0.00151   0.00148   0.50006   1.000
    O92     O    0.50003   0.00173   0.99982   1.000
    N93     N    0.99977   0.50153   0.50018   1.000
    O94     O    0.99539   0.46868   0.36864   1.000
    O95     O    0.00339   0.53432   0.63181   1.000
    O96     O    0.99618   0.36992   0.46718   1.000
    O97     O    0.00439   0.63311   0.53311   1.000
    N98     N    0.49858   0.50141   0.00008   1.000
    O99     O    0.63023   0.53447   0.00388   1.000
    O100    O    0.36683   0.46799   0.99635   1.000
    O101    O    0.46579   0.36977   0.99599   1.000
    O102    O    0.53177   0.63316   0.00417   1.000
    N103    N    0.50144   0.00123   0.50001   1.000
    O104    O    0.36982   0.99810   0.46695   1.000
    O105    O    0.46840   0.99810   0.36832   1.000
    O106    O    0.63313   0.00444   0.53328   1.000
    O107    O    0.53412   0.00465   0.63165   1.000
loop_
    _geom_bond_atom_site_label_1
    _geom_bond_atom_site_label_2
    _geom_bond_distance
    _geom_bond_site_symmetry_2
    _ccdc_geom_bond_type
    Zr17   O42       0.63917      .   S
    Zr40   O42       0.63917      .   S
    Zr17   O43       0.63961  1_554   S
    Zr41   O43       0.63961      .   S
    Zr8    O44       0.63938      .   S
    Zr22   O44       0.63938      .   S
    Zr8    O45       0.63966  1_554   S
    Zr23   O45       0.63966      .   S
    Zr35   O46       0.99071      .   S
    Zr2    O46       0.99071      .   S
    Zr35   O47       0.63946      .   S
    Zr14   O47       0.63946  1_556   S
    Zr29   O48       0.98816      .   S
    Zr0    O48       0.98816      .   S
    Zr29   O49       0.63960      .   S
    Zr11   O49       0.63960  1_556   S
    Zr2    O50       0.98708  1_545   S
    Zr22   O50       0.98708      .   S
    Zr2    O51       0.98655      .   S
    Zr25   O51       0.98655      .   S
    Zr2    O52       0.98507  1_554   S
    Zr36   O52       0.98507      .   S
    Zr0    O53       0.98551  1_455   S
    Zr40   O53       0.98551      .   S
    Zr0    O54       0.98805      .   S
    Zr31   O54       0.98805      .   S
    Zr0    O55       0.98623  1_554   S
    Zr18   O55       0.98623      .   S
    Zr24   O56       0.63929      .   S
    Zr9    O56       0.63929      .   S
    Zr24   O57       0.98723      .   S
    Zr3    O57       0.98723  1_556   S
    Zr30   O58       0.63946      .   S
    Zr12   O58       0.63946      .   S
    Zr30   O59       0.98694      .   S
    Zr5    O59       0.98694  1_556   S
    Zr25   O60       0.63947      .   S
    Zr9    O60       0.63947  1_565   S
    Zr31   O61       0.63944  1_455   S
    Zr12   O61       0.63944      .   S
    Zr32   O62       0.98539      .   S
    Zr4    O62       0.98539  1_655   S
    Zr32   O63       0.63928      .   S
    Zr13   O63       0.63928      .   S
    Zr26   O64       0.98625      .   S
    Zr4    O64       0.98625  1_565   S
    Zr26   O65       0.63947      .   S
    Zr10   O65       0.63947      .   S
    Zr4    O66       0.98856      .   S
    Zr39   O66       0.98856      .   S
    Zr4    O67       0.98819      .   S
    Zr21   O67       0.98819      .   S
    Zr13   O68       0.63943  1_565   S
    Zr33   O68       0.63943      .   S
    Zr10   O69       0.63947  1_655   S
    Zr27   O69       0.63947      .   S
    Zr39   O70       0.63953  1_655   S
    Zr16   O70       0.63953      .   S
    Zr21   O71       0.63945      .   S
    Zr7    O71       0.63945  1_545   S
    Zr27   O72       0.98892      .   S
    Zr1    O72       0.98892      .   S
    Zr33   O73       0.98872      .   S
    Zr1    O73       0.98872      .   S
    Zr16   O74       0.63935      .   S
    Zr38   O74       0.63935      .   S
    Zr7    O75       0.63930      .   S
    Zr20   O75       0.63930      .   S
    Zr1    O76       0.98561  1_545   S
    Zr38   O76       0.98561      .   S
    Zr1    O77       0.98569  1_455   S
    Zr20   O77       0.98569      .   S
    Zr15   O78       0.63938  1_545   S
    Zr37   O78       0.63938      .   S
    Zr15   O79       0.63933      .   S
    Zr36   O79       0.63933      .   S
    Zr6    O80       0.63948  1_455   S
    Zr19   O80       0.63948      .   S
    Zr6    O81       0.63918      .   S
    Zr18   O81       0.63918      .   S
    Zr37   O82       0.99014      .   S
    Zr3    O82       0.99014      .   S
    Zr19   O83       0.98933      .   S
    Zr5    O83       0.98933      .   S
    Zr34   O84       0.98469      .   S
    Zr3    O84       0.98469  1_565   S
    Zr34   O85       0.63930      .   S
    Zr14   O85       0.63930      .   S
    Zr28   O86       0.98642      .   S
    Zr5    O86       0.98642  1_655   S
    Zr28   O87       0.63948      .   S
    Zr11   O87       0.63948      .   S
    Zr3    O88       0.98735      .   S
    Zr23   O88       0.98735      .   S
    Zr5    O89       0.98967      .   S
    Zr41   O89       0.98967      .   S
    Zr0    O90       1.22671  1_455   S
    Zr5    O90       1.22671  1_556   S
    Zr1    O91       1.22610      .   S
    Zr4    O91       1.22610  1_665   S
    Zr2    O92       1.22602  1_554   S
    Zr3    O92       1.22602  1_565   S
    N93    O94       1.86928      .   S
    Zr12   O94       2.54247      .   S
    N93    O95       1.86941  1_655   S
    Zr6    O95       2.54260      .   S
    N93    O96       1.86887      .   S
    Zr10   O96       2.54183      .   S
    N93    O97       1.86933  1_655   S
    Zr16   O97       2.54222      .   S
    N98    O99       1.86761      .   S
    Zr17   O99       2.53989      .   S
    N98    O100      1.87013  1_554   S
    Zr11   O100      2.54329      .   S
    N98    O101      1.86743  1_554   S
    Zr14   O101      2.53960      .   S
    N98    O102      1.87047      .   S
    Zr8    O102      2.54394      .   S
    N103   O104      1.86745  1_545   S
    Zr13   O104      2.53969      .   S
    N103   O105      1.87004  1_545   S
    Zr9    O105      2.54372      .   S
    N103   O106      1.86925      .   S
    Zr7    O106      2.54201      .   S
    N103   O107      1.86832      .   S
    Zr15   O107      2.54121      .   S
