# CIF file generated by openbabel 2.4.90, see http://openbabel.sf.net
data_I
_chemical_name_common ''
_cell_length_a 13.59
_cell_length_b 13.596
_cell_length_c 13.604
_cell_angle_alpha 87.248
_cell_angle_beta 87.32
_cell_angle_gamma 87.467
_space_group_name_H-M_alt 'P 1'
_space_group_name_Hall 'P 1'
loop_
    _symmetry_equiv_pos_as_xyz
    x,y,z
loop_
    _atom_site_label
    _atom_site_type_symbol
    _atom_site_fract_x
    _atom_site_fract_y
    _atom_site_fract_z
    _atom_site_occupancy
    N0      N    0.99977   0.50153   0.50018   1.000
    N1      N    0.49858   0.50141   0.00008   1.000
    N2      N    0.50144   0.00123   0.50001   1.000
    Zr3     Zr   0.99858   0.50111   0.00025   1.000
    O4      O    0.18271   0.48455   0.99830   1.000
    O5      O    0.00099   0.51772   0.81603   1.000
    O6      O    0.99698   0.48490   0.18444   1.000
    O7      O    0.81441   0.51779   0.00206   1.000
    Zr8     Zr   0.50003   0.00163   0.99998   1.000
    O9      O    0.51590   0.81739   0.00208   1.000
    O10     O    0.48421   0.99986   0.18415   1.000
    O11     O    0.51707   0.00314   0.81582   1.000
    O12     O    0.48291   0.18570   0.99798   1.000
    Zr13    Zr   0.00139   0.00142   0.50013   1.000
    O14     O    0.00289   0.81726   0.51662   1.000
    O15     O    0.18561   0.99976   0.48354   1.000
    O16     O    0.99879   0.18567   0.48366   1.000
    O17     O    0.81726   0.00293   0.51671   1.000
loop_
    _geom_bond_atom_site_label_1
    _geom_bond_atom_site_label_2
    _geom_bond_distance
    _geom_bond_site_symmetry_2
    _ccdc_geom_bond_type
    Zr3    O4        2.50148  1_654   S
    N1     O4        4.31020  1_554   S
    Zr3    O5        2.50426  1_654   S
    N0     O5        4.31385  1_655   S
    Zr3    O6        2.50407      .   S
    N0     O6        4.31404      .   S
    Zr3    O7        2.50222      .   S
    N1     O7        4.30910      .   S
    Zr8    O9        2.50349  1_546   S
    N1     O9        4.31440      .   S
    Zr8    O10       2.50369  1_546   S
    N2     O10       4.31522  1_545   S
    Zr8    O11       2.50443      .   S
    N2     O11       4.31273      .   S
    Zr8    O12       2.50213      .   S
    N1     O12       4.30860  1_554   S
    Zr13   O14       2.50230  1_545   S
    N0     O14       4.31137  1_655   S
    Zr13   O15       2.50227  1_545   S
    N2     O15       4.30942  1_545   S
    Zr13   O16       2.50319  1_455   S
    N0     O16       4.31178      .   S
    Zr13   O17       2.50125  1_455   S
    N2     O17       4.30976      .   S
