# CIF file generated by openbabel 2.4.90, see http://openbabel.sf.net
data_I
_chemical_name_common ''
_cell_length_a 18.27
_cell_length_b 20.957
_cell_length_c 18.59
_cell_angle_alpha 89.889
_cell_angle_beta 90.069
_cell_angle_gamma 89.959
_space_group_name_H-M_alt 'P 1'
_space_group_name_Hall 'P 1'
loop_
    _symmetry_equiv_pos_as_xyz
    x,y,z
loop_
    _atom_site_label
    _atom_site_type_symbol
    _atom_site_fract_x
    _atom_site_fract_y
    _atom_site_fract_z
    _atom_site_occupancy
    Zn0     Zn   0.06565   0.51101   0.59946   1.000
    Zn1     Zn   0.56565   0.01101   0.59946   1.000
    Zn2     Zn   0.56565   0.51101   0.59946   1.000
    Zn3     Zn   0.31555   0.48908   0.40068   1.000
    Zn4     Zn   0.31555   0.98907   0.40068   1.000
    Zn5     Zn   0.81555   0.48908   0.40068   1.000
    Zn6     Zn   0.81554   0.98907   0.40068   1.000
    Zn7     Zn   0.06574   0.24057   0.09932   1.000
    Zn8     Zn   0.06574   0.74056   0.09932   1.000
    Zn9     Zn   0.56573   0.24056   0.09932   1.000
    Zn10    Zn   0.56573   0.74056   0.09932   1.000
    Zn11    Zn   0.31550   0.26101   0.90062   1.000
    Zn12    Zn   0.31549   0.76101   0.90062   1.000
    Zn13    Zn   0.81549   0.26101   0.90062   1.000
    Zn14    Zn   0.81549   0.76101   0.90062   1.000
    Zn15    Zn   0.06566   0.01101   0.59946   1.000
    C16     C    0.46402   0.46844   0.70006   1.000
    C17     C    0.46401   0.96843   0.70000   1.000
    C18     C    0.96401   0.46844   0.70000   1.000
    C19     C    0.96401   0.96843   0.70000   1.000
    C20     C    0.21391   0.03200   0.29982   1.000
    C21     C    0.21391   0.53199   0.29982   1.000
    C22     C    0.71391   0.03200   0.29981   1.000
    C23     C    0.71391   0.53199   0.29980   1.000
    C24     C    0.46380   0.28195   0.20023   1.000
    C25     C    0.46380   0.78195   0.20023   1.000
    C26     C    0.96380   0.28195   0.20023   1.000
    C27     C    0.96379   0.78195   0.20023   1.000
    C28     C    0.21400   0.21827   0.79996   1.000
    C29     C    0.21400   0.71827   0.79996   1.000
    C30     C    0.71400   0.21827   0.79996   1.000
    C31     C    0.71400   0.71827   0.79996   1.000
    O32     O    0.02137   0.44725   0.66576   1.000
    O33     O    0.02137   0.94725   0.66576   1.000
    O34     O    0.52137   0.44725   0.66576   1.000
    O35     O    0.52136   0.94725   0.66576   1.000
    O36     O    0.43784   0.02292   0.69386   1.000
    O37     O    0.43784   0.52292   0.69386   1.000
    O38     O    0.93783   0.02292   0.69386   1.000
    O39     O    0.93783   0.52292   0.69386   1.000
    O40     O    0.27138   0.05290   0.33421   1.000
    O41     O    0.27137   0.55290   0.33421   1.000
    O42     O    0.77137   0.05290   0.33421   1.000
    O43     O    0.77137   0.55290   0.33421   1.000
    O44     O    0.18753   0.47762   0.30605   1.000
    O45     O    0.18753   0.97761   0.30605   1.000
    O46     O    0.68753   0.47762   0.30600   1.000
    O47     O    0.68752   0.97762   0.30606   1.000
    O48     O    0.02115   0.30330   0.16600   1.000
    O49     O    0.02115   0.80330   0.16600   1.000
    O50     O    0.52115   0.30330   0.16600   1.000
    O51     O    0.52114   0.80330   0.16600   1.000
    O52     O    0.43760   0.22756   0.19380   1.000
    O53     O    0.43760   0.72756   0.19380   1.000
    O54     O    0.93759   0.22757   0.19380   1.000
    O55     O    0.93759   0.72756   0.19380   1.000
    O56     O    0.27148   0.19719   0.83435   1.000
    O57     O    0.27147   0.69719   0.83435   1.000
    O58     O    0.77147   0.19718   0.83436   1.000
    O59     O    0.77147   0.69719   0.83435   1.000
    O60     O    0.18758   0.27263   0.80621   1.000
    O61     O    0.18758   0.77263   0.80621   1.000
    O62     O    0.68757   0.27263   0.80621   1.000
    O63     O    0.68757   0.77263   0.80621   1.000
loop_
    _geom_bond_atom_site_label_1
    _geom_bond_atom_site_label_2
    _geom_bond_distance
    _geom_bond_site_symmetry_2
    _ccdc_geom_bond_type
    Zn7    O48       1.98390      .   S
    Zn8    O49       1.98388      .   S
    Zn9    O50       1.98392      .   S
    Zn10   O51       1.98394      .   S
    O51    C25       1.30527      .   S
    O50    C24       1.30531      .   S
    O49    C27       1.30551  1_455   S
    O48    C26       1.30546  1_455   S
    O55    C27       1.24250      .   S
    O52    C24       1.24252      .   S
    O53    C25       1.24251      .   S
    O54    C26       1.24249      .   S
    C23    O46       1.24281      .   S
    C23    O43       1.30512      .   S
    C22    O47       1.24300  1_545   S
    C22    O42       1.30501      .   S
    C20    O45       1.24298  1_545   S
    C20    O40       1.30498      .   S
    C21    O44       1.24286      .   S
    C21    O41       1.30499      .   S
    O41    Zn3       1.98921      .   S
    O42    Zn6       1.98929  1_545   S
    O43    Zn5       1.98923      .   S
    O40    Zn4       1.98923  1_545   S
    Zn0    O32       1.98912      .   S
    Zn2    O34       1.98912      .   S
    Zn1    O35       1.98919  1_545   S
    Zn15   O33       1.98920  1_545   S
    O32    C18       1.30483  1_455   S
    O33    C19       1.30483  1_455   S
    O34    C16       1.30523      .   S
    O35    C17       1.30468      .   S
    O37    C16       1.24275      .   S
    O36    C17       1.24269  1_545   S
    O38    C19       1.24270  1_545   S
    O39    C18       1.24265      .   S
    C29    O61       1.24276      .   S
    C29    O57       1.30504      .   S
    C31    O63       1.24278      .   S
    C31    O59       1.30503      .   S
    C30    O62       1.24274      .   S
    C30    O58       1.30503      .   S
    C28    O60       1.24275      .   S
    C28    O56       1.30508      .   S
    O59    Zn14      1.98981      .   S
    O56    Zn11      1.98980      .   S
    O57    Zn12      1.98981      .   S
    O58    Zn13      1.98978      .   S
