# CIF file generated by openbabel 2.4.90, see http://openbabel.sf.net
data_I
_chemical_name_common ''
_cell_length_a 18.27
_cell_length_b 20.957
_cell_length_c 18.59
_cell_angle_alpha 89.889
_cell_angle_beta 90.069
_cell_angle_gamma 89.959
_space_group_name_H-M_alt 'P 1'
_space_group_name_Hall 'P 1'
loop_
    _symmetry_equiv_pos_as_xyz
    x,y,z
loop_
    _atom_site_label
    _atom_site_type_symbol
    _atom_site_fract_x
    _atom_site_fract_y
    _atom_site_fract_z
    _atom_site_occupancy
    C0      C    0.46402   0.46844   0.70006   1.000
    C1      C    0.46401   0.96843   0.70000   1.000
    C2      C    0.96401   0.46844   0.70000   1.000
    C3      C    0.96401   0.96843   0.70000   1.000
    C4      C    0.21391   0.03200   0.29982   1.000
    C5      C    0.21391   0.53199   0.29982   1.000
    C6      C    0.71391   0.03200   0.29981   1.000
    C7      C    0.71391   0.53199   0.29980   1.000
    C8      C    0.46380   0.28195   0.20023   1.000
    C9      C    0.46380   0.78195   0.20023   1.000
    C10     C    0.96380   0.28195   0.20023   1.000
    C11     C    0.96379   0.78195   0.20023   1.000
    C12     C    0.21400   0.21827   0.79996   1.000
    C13     C    0.21400   0.71827   0.79996   1.000
    C14     C    0.71400   0.21827   0.79996   1.000
    C15     C    0.71400   0.71827   0.79996   1.000
