# CIF file generated by openbabel 2.4.90, see http://openbabel.sf.net
data_I
_chemical_name_common 'ZnH2(CO2)2'
_cell_length_a 10.1035
_cell_length_b 11.5595
_cell_length_c 14.892
_cell_angle_alpha 91.046
_cell_angle_beta 90.032
_cell_angle_gamma 90.037
_space_group_name_H-M_alt 'P 1'
_space_group_name_Hall 'P 1'
loop_
    _symmetry_equiv_pos_as_xyz
    x,y,z
loop_
    _atom_site_label
    _atom_site_type_symbol
    _atom_site_fract_x
    _atom_site_fract_y
    _atom_site_fract_z
    _atom_site_occupancy
    Zn0     Zn   0.07177   0.24525   0.87038   1.000
    Zn1     Zn   0.88250   0.25930   0.69127   1.000
    Zn2     Zn   0.57171   0.25471   0.62959   1.000
    Zn3     Zn   0.38248   0.24049   0.80865   1.000
    Zn4     Zn   0.92822   0.75474   0.12964   1.000
    Zn5     Zn   0.11750   0.74069   0.30875   1.000
    Zn6     Zn   0.42829   0.74528   0.37044   1.000
    Zn7     Zn   0.61752   0.75950   0.19137   1.000
    Zn8     Zn   0.00000   0.50001   1.00000   1.000
    Zn9     Zn   0.50000   0.99999   0.50001   1.000
    Zn10    Zn   1.00000   0.00000   0.00000   1.000
    Zn11    Zn   0.50000   0.50000   0.50001   1.000
    H12     H    0.24210   0.14341   0.62886   1.000
    H13     H    0.94542   0.52555   0.73043   1.000
    H14     H    0.39077   0.43960   0.95332   1.000
    H15     H    0.79092   0.01942   0.76867   1.000
    H16     H    0.83967   0.31037   0.08124   1.000
    H17     H    0.29119   0.99660   0.98708   1.000
    H18     H    0.74249   0.35614   0.87115   1.000
    H19     H    0.44886   0.97425   0.76997   1.000
    H20     H    0.89021   0.06164   0.54483   1.000
    H21     H    0.29070   0.48030   0.73106   1.000
    H22     H    0.33846   0.18965   0.41910   1.000
    H23     H    0.79121   0.50326   0.51290   1.000
    H24     H    0.75790   0.85659   0.37116   1.000
    H25     H    0.05455   0.47443   0.26958   1.000
    H26     H    0.60922   0.56037   0.04672   1.000
    H27     H    0.20909   0.98056   0.23135   1.000
    H28     H    0.16034   0.68963   0.91878   1.000
    H29     H    0.70880   0.00339   0.01295   1.000
    H30     H    0.25750   0.64386   0.12888   1.000
    H31     H    0.55114   0.02575   0.23006   1.000
    H32     H    0.10978   0.93834   0.45521   1.000
    H33     H    0.70930   0.51970   0.26897   1.000
    H34     H    0.66153   0.81034   0.58093   1.000
    H35     H    0.20878   0.49673   0.48712   1.000
    C36     C    0.16062   0.17566   0.67179   1.000
    C37     C    0.97269   0.48054   0.79265   1.000
    C38     C    0.28304   0.42465   0.94694   1.000
    C39     C    0.86354   0.04841   0.82006   1.000
    C40     C    0.89942   0.25661   0.03473   1.000
    C41     C    0.27342   0.06977   0.94223   1.000
    C42     C    0.66090   0.32412   0.82812   1.000
    C43     C    0.47547   0.01941   0.70769   1.000
    C44     C    0.78252   0.07649   0.55141   1.000
    C45     C    0.36348   0.45146   0.67980   1.000
    C46     C    0.39882   0.24335   0.46539   1.000
    C47     C    0.77337   0.43011   0.55776   1.000
    C48     C    0.83938   0.82433   0.32824   1.000
    C49     C    0.02729   0.51945   0.20736   1.000
    C50     C    0.71695   0.57532   0.05309   1.000
    C51     C    0.13645   0.95158   0.17996   1.000
    C52     C    0.10058   0.74339   0.96530   1.000
    C53     C    0.72657   0.93022   0.05779   1.000
    C54     C    0.33910   0.67587   0.17190   1.000
    C55     C    0.52452   0.98058   0.29233   1.000
    C56     C    0.21748   0.92350   0.44862   1.000
    C57     C    0.63652   0.54853   0.32023   1.000
    C58     C    0.60118   0.75664   0.53464   1.000
    C59     C    0.22663   0.56987   0.44226   1.000
    O60     O    0.18937   0.19956   0.75397   1.000
    O61     O    0.04860   0.18485   0.63559   1.000
    O62     O    0.97900   0.36951   0.78599   1.000
    O63     O    0.99487   0.54022   0.86193   1.000
    O64     O    0.24870   0.34825   0.88722   1.000
    O65     O    0.20740   0.48270   0.00000   1.000
    O66     O    0.91212   0.14988   0.80883   1.000
    O67     O    0.88901   0.98033   0.88216   1.000
    O68     O    0.97272   0.31406   0.97989   1.000
    O69     O    0.88954   0.14924   0.03891   1.000
    O70     O    0.15215   0.10369   0.93687   1.000
    O71     O    0.37142   0.11076   0.90204   1.000
    O72     O    0.68958   0.30031   0.74592   1.000
    O73     O    0.54887   0.31503   0.86422   1.000
    O74     O    0.47889   0.13059   0.71393   1.000
    O75     O    0.49957   0.95990   0.63866   1.000
    O76     O    0.74835   0.15128   0.61233   1.000
    O77     O    0.70676   0.01975   0.50052   1.000
    O78     O    0.41215   0.35010   0.69112   1.000
    O79     O    0.38905   0.51964   0.61778   1.000
    O80     O    0.47223   0.18586   0.52011   1.000
    O81     O    0.38930   0.35073   0.46114   1.000
    O82     O    0.65206   0.39623   0.56311   1.000
    O83     O    0.87137   0.38904   0.59792   1.000
    O84     O    0.81062   0.80043   0.24605   1.000
    O85     O    0.95140   0.81514   0.36443   1.000
    O86     O    0.02100   0.63048   0.21404   1.000
    O87     O    0.00517   0.45977   0.13808   1.000
    O88     O    0.75130   0.65173   0.11281   1.000
    O89     O    0.79259   0.51726   0.00321   1.000
    O90     O    0.08788   0.85011   0.19119   1.000
    O91     O    0.11098   0.01966   0.11786   1.000
    O92     O    0.02729   0.68594   0.02014   1.000
    O93     O    0.11046   0.85076   0.96111   1.000
    O94     O    0.84784   0.89631   0.06315   1.000
    O95     O    0.62857   0.88923   0.09799   1.000
    O96     O    0.31042   0.69968   0.25410   1.000
    O97     O    0.45112   0.68496   0.13580   1.000
    O98     O    0.52111   0.86941   0.28610   1.000
    O99     O    0.50043   0.04009   0.36136   1.000
    O100    O    0.25165   0.84870   0.38769   1.000
    O101    O    0.29324   0.98024   0.49951   1.000
    O102    O    0.58785   0.64989   0.30891   1.000
    O103    O    0.61095   0.48035   0.38224   1.000
    O104    O    0.52776   0.81413   0.47991   1.000
    O105    O    0.61069   0.64926   0.53888   1.000
    O106    O    0.34793   0.60376   0.43691   1.000
    O107    O    0.12862   0.61095   0.40210   1.000
loop_
    _geom_bond_atom_site_label_1
    _geom_bond_atom_site_label_2
    _geom_bond_distance
    _geom_bond_site_symmetry_2
    _ccdc_geom_bond_type
    O65    C38       1.28096  1_554   S
    O65    Zn8       2.10506  1_554   S
    Zn10   O69       2.12693      .   S
    Zn10   O91       2.09111  1_655   S
    Zn10   O67       2.09085  1_544   S
    Zn10   O93       2.12691  1_644   S
    O89    C50       1.25283      .   S
    O89    Zn8       2.10563  1_654   S
    H29    C53       1.10199  1_545   S
    O92    Zn4       2.06139  1_455   S
    O92    C52       1.29472  1_554   S
    C40    O69       1.24778      .   S
    C40    H16       1.10266      .   S
    C40    O68       1.29472  1_554   S
    H26    C50       1.10576      .   S
    C50    O88       1.28916      .   S
    C53    O94       1.28953      .   S
    C53    O95       1.25445      .   S
    O94    Zn4       2.09232      .   S
    O95    Zn7       2.06670      .   S
    O88    Zn4       2.15917      .   S
    O91    C51       1.25190  1_545   S
    H30    C54       1.10337      .   S
    Zn4    O90       2.14867  1_655   S
    Zn4    O84       2.15995      .   S
    O97    C54       1.25845      .   S
    O97    Zn7       2.05526      .   S
    O87    C49       1.25066      .   S
    O87    Zn8       2.11711  1_554   S
    C54    O96       1.28317      .   S
    C51    O90       1.28496      .   S
    C51    H27       1.10731      .   S
    Zn7    O98       2.11910      .   S
    C49    O86       1.28700      .   S
    C49    H25       1.10574      .   S
    O86    Zn5       2.12001      .   S
    H31    C55       1.10579  1_545   S
    O84    C48       1.28294      .   S
    O96    Zn6       2.15892      .   S
    H33    C57       1.10735      .   S
    O98    C55       1.28721      .   S
    C55    O99       1.25057  1_565   S
    Zn5    O85       2.05469  1_455   S
    Zn5    O107      2.06652      .   S
    O102   C57       1.28488      .   S
    O102   Zn6       2.14974      .   S
    C57    O103      1.25195      .   S
    C48    O85       1.25874      .   S
    C48    H24       1.10339      .   S
    O99    Zn9       2.12436  1_545   S
    Zn6    O100      2.16156      .   S
    Zn6    O106      2.09136      .   S
    Zn6    O104      2.06187      .   S
    O103   Zn11      2.09095      .   S
    O100   C56       1.28918      .   S
    O107   C59       1.25451      .   S
    H22    C46       1.10261      .   S
    O106   C59       1.28938      .   S
    C59    H35       1.10194      .   S
    C56    H32       1.10581      .   S
    C56    O101      1.25335      .   S
    O81    C46       1.24783      .   S
    O81    Zn11      2.12676      .   S
    C46    O80       1.29450      .   S
    O104   C58       1.29449      .   S
    O101   Zn9       2.10128      .   S
    Zn9    O77       2.10132  1_565   S
    Zn9    O75       2.12436      .   S
    Zn11   O105      2.12677      .   S
    Zn11   O79       2.09094      .   S
    O77    C44       1.25335      .   S
    H23    C47       1.10195      .   S
    O80    Zn2       2.06188      .   S
    C58    O105      1.24781      .   S
    C58    H34       1.10262      .   S
    H20    C44       1.10580      .   S
    C44    O76       1.28917      .   S
    C47    O82       1.28940      .   S
    C47    O83       1.25450      .   S
    O82    Zn2       2.09133      .   S
    O83    Zn1       2.06653      .   S
    O76    Zn2       2.16159      .   S
    O79    C45       1.25197      .   S
    H12    C36       1.10340      .   S
    Zn2    O78       2.14976      .   S
    Zn2    O72       2.15891      .   S
    O61    C36       1.25874      .   S
    O61    Zn1       2.05472  1_455   S
    O75    C43       1.25057  1_565   S
    C36    O60       1.28295      .   S
    C45    O78       1.28487      .   S
    C45    H21       1.10735      .   S
    Zn1    O62       2.11998      .   S
    C43    O74       1.28721      .   S
    C43    H19       1.10577  1_545   S
    O74    Zn3       2.11910      .   S
    H13    C37       1.10572      .   S
    O72    C42       1.28316      .   S
    O60    Zn0       2.15999      .   S
    H15    C39       1.10731      .   S
    O62    C37       1.28703      .   S
    C37    O63       1.25068      .   S
    Zn3    O73       2.05526      .   S
    Zn3    O71       2.06671      .   S
    O66    C39       1.28498      .   S
    O66    Zn0       2.14863  1_655   S
    C39    O67       1.25192  1_545   S
    C42    O73       1.25846      .   S
    C42    H18       1.10337      .   S
    O63    Zn8       2.11688  1_655   S
    Zn0    O64       2.15912      .   S
    Zn0    O70       2.09230      .   S
    Zn0    O68       2.06134  1_455   S
    O64    C38       1.28914      .   S
    O71    C41       1.25446      .   S
    H28    C52       1.10268      .   S
    O70    C41       1.28952      .   S
    C41    H17       1.10199  1_545   S
    C38    H14       1.10576      .   S
    O93    C52       1.24777      .   S
    O60    Zn3       2.16251      .   S
    O62    Zn0       2.14189  1_655   S
    O64    Zn3       2.16753      .   S
    O66    Zn1       2.19887      .   S
    O68    Zn8       2.18206  1_655   S
    O70    Zn10      2.17349  1_456   S
    O72    Zn1       2.16221      .   S
    O74    Zn2       2.14029      .   S
    O76    Zn1       2.17271      .   S
    O78    Zn3       2.19999      .   S
    O80    Zn9       2.18215  1_545   S
    O82    Zn11      2.17350      .   S
    O84    Zn7       2.16252      .   S
    O86    Zn4       2.14194  1_455   S
    O88    Zn7       2.16759      .   S
    O90    Zn5       2.19889      .   S
    O92    Zn8       2.18197  1_554   S
    O94    Zn10      2.17371  1_565   S
    O96    Zn5       2.16220      .   S
    O98    Zn6       2.14029      .   S
    O100   Zn5       2.17272      .   S
    O102   Zn7       2.20000      .   S
    O104   Zn9       2.18213      .   S
    O106   Zn11      2.17349      .   S
