# CIF file generated by openbabel 2.4.90, see http://openbabel.sf.net
data_I
_chemical_name_common ''
_cell_length_a 13.019
_cell_length_b 12.951
_cell_length_c 21.117
_cell_angle_alpha 85.765
_cell_angle_beta 85.797
_cell_angle_gamma 69.843
_space_group_name_H-M_alt 'P 1'
_space_group_name_Hall 'P 1'
loop_
    _symmetry_equiv_pos_as_xyz
    x,y,z
loop_
    _atom_site_label
    _atom_site_type_symbol
    _atom_site_fract_x
    _atom_site_fract_y
    _atom_site_fract_z
    _atom_site_occupancy
    Cd0     Cd   0.56834   0.55906   0.08798   1.000
    Cd1     Cd   0.93722   0.92756   0.31800   1.000
    Cd2     Cd   0.44160   0.43101   0.41196   1.000
    Cd3     Cd   0.92836   0.93647   0.81877   1.000
    Cd4     Cd   0.43170   0.44093   0.91199   1.000
    Cd5     Cd   0.06282   0.07241   0.68108   1.000
    Cd6     Cd   0.55844   0.56896   0.58800   1.000
    H7      H    0.86784   0.14289   0.09728   1.000
    H8      H    0.73902   0.46564   0.22525   1.000
    H9      H    0.90532   0.29885   0.25473   1.000
    H10     H    0.22863   0.21877   0.31434   1.000
    H11     H    0.82122   0.10421   0.91384   1.000
    H12     H    0.06761   0.04118   0.44357   1.000
    H13     H    0.24660   0.22672   0.51653   1.000
    H14     H    0.68471   0.11347   0.74033   1.000
    H15     H    0.52508   0.28300   0.77172   1.000
    H16     H    0.85669   0.13236   0.40264   1.000
    H17     H    0.53535   0.26005   0.27476   1.000
    H18     H    0.70226   0.09427   0.24492   1.000
    H19     H    0.78240   0.77017   0.18559   1.000
    H20     H    0.89576   0.17913   0.58595   1.000
    H21     H    0.95969   0.93138   0.05640   1.000
    H22     H    0.77322   0.75343   0.98338   1.000
    H23     H    0.88645   0.31648   0.75930   1.000
    H24     H    0.71633   0.47564   0.72840   1.000
    H25     H    0.13218   0.85709   0.90270   1.000
    H26     H    0.26100   0.53433   0.77473   1.000
    H27     H    0.09469   0.70112   0.74525   1.000
    H28     H    0.77140   0.78121   0.68564   1.000
    H29     H    0.17881   0.89577   0.08614   1.000
    H30     H    0.93243   0.95880   0.55641   1.000
    H31     H    0.75344   0.77326   0.48345   1.000
    Cd32    Cd   0.07167   0.06351   0.18121   1.000
    H33     H    0.31533   0.88652   0.25960   1.000
    H34     H    0.47495   0.71698   0.22820   1.000
    H35     H    0.14335   0.86761   0.59733   1.000
    H36     H    0.46469   0.73990   0.72522   1.000
    H37     H    0.29777   0.90569   0.75506   1.000
    H38     H    0.21764   0.22979   0.81438   1.000
    H39     H    0.10428   0.82084   0.41403   1.000
    H40     H    0.04034   0.06860   0.94358   1.000
    H41     H    0.22681   0.24656   0.01660   1.000
    H42     H    0.11360   0.68350   0.24060   1.000
    H43     H    0.28372   0.52434   0.27155   1.000
    C44     C    0.83757   0.21333   0.12724   1.000
    C45     C    0.76649   0.39190   0.19791   1.000
    C46     C    0.85753   0.30082   0.21409   1.000
    C47     C    0.74775   0.30592   0.11024   1.000
    C48     C    0.69599   0.31131   0.05103   1.000
    C49     C    0.20859   0.19357   0.36264   1.000
    C50     C    0.10554   0.08770   0.31640   1.000
    C51     C    0.14459   0.12537   0.37282   1.000
    C52     C    0.75557   0.14405   0.88154   1.000
    C53     C    0.66818   0.23852   0.89851   1.000
    C54     C    0.66321   0.28369   0.95993   1.000
    C55     C    0.31774   0.29945   0.40489   1.000
    C56     C    0.15308   0.13210   0.48689   1.000
    C57     C    0.11755   0.09376   0.43509   1.000
    C58     C    0.21841   0.19825   0.47617   1.000
    C59     C    0.24719   0.22872   0.41423   1.000
    C60     C    0.67962   0.14982   0.78590   1.000
    C61     C    0.59267   0.24402   0.80275   1.000
    C62     C    0.12036   0.10563   0.55413   1.000
    C63     C    0.78653   0.16235   0.37270   1.000
    C64     C    0.60871   0.23282   0.30210   1.000
    C65     C    0.69992   0.14205   0.28573   1.000
    C66     C    0.69383   0.25181   0.38994   1.000
    C67     C    0.68808   0.30349   0.44930   1.000
    C68     C    0.80737   0.79039   0.13729   1.000
    C69     C    0.91388   0.89267   0.18361   1.000
    C70     C    0.87582   0.85412   0.12713   1.000
    C71     C    0.85574   0.24483   0.61833   1.000
    C72     C    0.76090   0.33186   0.60165   1.000
    C73     C    0.71557   0.33644   0.54038   1.000
    C74     C    0.70052   0.68222   0.09505   1.000
    C75     C    0.86833   0.84641   0.01305   1.000
    C76     C    0.90705   0.88151   0.06480   1.000
    C77     C    0.80198   0.78129   0.02376   1.000
    C78     C    0.77166   0.75236   0.08570   1.000
    C79     C    0.84994   0.32126   0.71393   1.000
    C80     C    0.75543   0.40790   0.69730   1.000
    C81     C    0.89474   0.87932   0.94581   1.000
    C82     C    0.16245   0.78664   0.87270   1.000
    C83     C    0.23353   0.60807   0.80207   1.000
    C84     C    0.14249   0.69915   0.78589   1.000
    C85     C    0.25227   0.69406   0.88974   1.000
    C86     C    0.30404   0.68867   0.94895   1.000
    C87     C    0.79144   0.80641   0.63730   1.000
    C88     C    0.89450   0.91228   0.68358   1.000
    C89     C    0.85544   0.87462   0.62715   1.000
    C90     C    0.24446   0.85593   0.11844   1.000
    C91     C    0.33185   0.76146   0.10146   1.000
    C92     C    0.33682   0.71629   0.04005   1.000
    C93     C    0.68229   0.70053   0.59508   1.000
    C94     C    0.84696   0.86788   0.51309   1.000
    C95     C    0.88249   0.90621   0.56489   1.000
    C96     C    0.78163   0.80172   0.52381   1.000
    C97     C    0.75285   0.77127   0.58575   1.000
    C98     C    0.32041   0.85016   0.21407   1.000
    C99     C    0.40736   0.75596   0.19722   1.000
    C100    C    0.87968   0.89434   0.44585   1.000
    C101    C    0.21351   0.83761   0.62728   1.000
    C102    C    0.39132   0.76714   0.69780   1.000
    C103    C    0.30012   0.85791   0.71425   1.000
    C104    C    0.30621   0.74815   0.61004   1.000
    C105    C    0.31196   0.69648   0.55067   1.000
    C106    C    0.19266   0.20959   0.86260   1.000
    C107    C    0.08616   0.10729   0.81636   1.000
    C108    C    0.12422   0.14586   0.87280   1.000
    C109    C    0.14431   0.75514   0.38164   1.000
    C110    C    0.23915   0.66811   0.39832   1.000
    C111    C    0.28447   0.66353   0.45959   1.000
    C112    C    0.29952   0.31775   0.90492   1.000
    C113    C    0.13169   0.15359   0.98692   1.000
    C114    C    0.09298   0.11847   0.93511   1.000
    C115    C    0.19805   0.21870   0.97622   1.000
    C116    C    0.22837   0.24763   0.91428   1.000
    C117    C    0.15010   0.67872   0.28604   1.000
    C118    C    0.24461   0.59208   0.30264   1.000
    C119    C    0.10530   0.12065   0.05410   1.000
    N120    N    0.89193   0.21122   0.17888   1.000
    N121    N    0.71082   0.39468   0.14600   1.000
    N122    N    0.60660   0.39766   0.03473   1.000
    N123    N    0.73433   0.23734   0.00581   1.000
    N124    N    0.58538   0.37972   0.97550   1.000
    N125    N    0.76124   0.10030   0.82540   1.000
    N126    N    0.58713   0.28967   0.85862   1.000
    N127    N    0.78915   0.10795   0.32089   1.000
    N128    N    0.60542   0.28850   0.35392   1.000
    N129    N    0.60158   0.39258   0.46583   1.000
    N130    N    0.76206   0.26542   0.49438   1.000
    N131    N    0.61940   0.41392   0.52505   1.000
    N132    N    0.89962   0.23956   0.67429   1.000
    N133    N    0.70962   0.41300   0.64164   1.000
    N134    N    0.10809   0.78875   0.82110   1.000
    N135    N    0.28920   0.60530   0.85368   1.000
    N136    N    0.39343   0.60232   0.96520   1.000
    N137    N    0.26570   0.76263   0.99417   1.000
    N138    N    0.41465   0.62026   0.02448   1.000
    N139    N    0.23879   0.89969   0.17454   1.000
    N140    N    0.41290   0.71031   0.14136   1.000
    N141    N    0.21088   0.89201   0.67908   1.000
    N142    N    0.39461   0.71146   0.64606   1.000
    N143    N    0.39846   0.60739   0.53414   1.000
    N144    N    0.23799   0.73454   0.50560   1.000
    N145    N    0.38064   0.58605   0.47492   1.000
    N146    N    0.10043   0.76041   0.32569   1.000
    N147    N    0.29042   0.58698   0.35830   1.000
    O148    O    0.10241   0.14583   0.26425   1.000
    O149    O    0.08053   0.00065   0.32210   1.000
    O150    O    0.05750   0.04870   0.56437   1.000
    O151    O    0.34655   0.32868   0.34974   1.000
    O152    O    0.34676   0.32853   0.45600   1.000
    O153    O    0.15527   0.14308   0.59930   1.000
    O154    O    0.85716   0.89400   0.23601   1.000
    O155    O    0.99970   0.91909   0.17775   1.000
    O156    O    0.95168   0.94219   0.93560   1.000
    O157    O    0.67097   0.65378   0.15022   1.000
    O158    O    0.67140   0.65322   0.04396   1.000
    O159    O    0.85717   0.84458   0.90055   1.000
    O160    O    0.89763   0.85415   0.73573   1.000
    O161    O    0.91950   0.99933   0.67780   1.000
    O162    O    0.94253   0.95128   0.43560   1.000
    O163    O    0.65348   0.67130   0.65024   1.000
    O164    O    0.65327   0.67145   0.54398   1.000
    O165    O    0.84477   0.85689   0.40062   1.000
    O166    O    0.14289   0.10596   0.76397   1.000
    O167    O    0.00034   0.08088   0.82222   1.000
    O168    O    0.04836   0.05779   0.06438   1.000
    O169    O    0.32906   0.34619   0.84976   1.000
    O170    O    0.32864   0.34676   0.95601   1.000
    O171    O    0.14286   0.15540   0.09942   1.000
loop_
    _geom_bond_atom_site_label_1
    _geom_bond_atom_site_label_2
    _geom_bond_distance
    _geom_bond_site_symmetry_2
    _ccdc_geom_bond_type
    N123   C48       1.34697      .   S
    N123   C54       1.34865  1_554   S
    C75    C77       1.39788      .   S
    C75    C76       1.40251      .   S
    C75    C81       1.50201  1_554   S
    H41    C115      1.08756  1_554   S
    C77    C78       1.40030      .   S
    C77    H22       1.08759  1_554   S
    N138   C92       1.35086      .   S
    N138   Cd0       2.36067      .   S
    N138   N136      1.35471  1_554   S
    N122   C48       1.35218      .   S
    N122   Cd0       2.33002      .   S
    N122   N124      1.35370  1_554   S
    C92    C91       1.44976      .   S
    C92    N137      1.34868  1_554   S
    O158   Cd0       2.22014      .   S
    O158   C74       1.29104      .   S
    C48    C47       1.44936      .   S
    C119   O168      1.27509      .   S
    C119   O171      1.28118      .   S
    C119   C113      1.50088  1_554   S
    H21    C76       1.09016      .   S
    O168   Cd32      2.51723      .   S
    C76    C70       1.40559      .   S
    C78    C74       1.49948      .   S
    C78    C68       1.39890      .   S
    H29    C90       1.09153      .   S
    Cd0    N140      2.54218      .   S
    Cd0    N121      2.58854      .   S
    C74    O157      1.26866      .   S
    H7     C44       1.09034      .   S
    O171   Cd32      2.34104      .   S
    C91    C90       1.40199      .   S
    C91    N140      1.35214      .   S
    C47    C44       1.40199      .   S
    C47    N121      1.34794      .   S
    C90    N139      1.33695      .   S
    C70    C68       1.40495      .   S
    C70    C69       1.50417      .   S
    C44    N120      1.33644      .   S
    C68    H19       1.08865      .   S
    N140   C99       1.34437      .   S
    N121   C45       1.34938      .   S
    N139   Cd32      2.46435  1_565   S
    N139   C98       1.34855      .   S
    O155   Cd32      2.37063  1_665   S
    O155   C69       1.27179      .   S
    N120   Cd32      2.46081  1_655   S
    N120   C46       1.34926      .   S
    Cd32   O148      2.24604      .   S
    C69    O154      1.28232      .   S
    C99    C98       1.39627      .   S
    C99    H34       1.08934      .   S
    C45    C46       1.39615      .   S
    C45    H8        1.09044      .   S
    C98    H33       1.08928      .   S
    C46    H9        1.09013      .   S
    O154   Cd1       2.22733      .   S
    H42    C117      1.09005      .   S
    H18    C65       1.09021      .   S
    O148   C50       1.28227      .   S
    H43    C118      1.09001      .   S
    H17    C64       1.09022      .   S
    C65    C64       1.39609      .   S
    C65    N127      1.34920      .   S
    C117   C118      1.39626      .   S
    C117   N146      1.34858      .   S
    C64    N128      1.34454      .   S
    C118   N147      1.34375      .   S
    H10    C49       1.08873      .   S
    C50    O149      1.27215      .   S
    C50    C51       1.50386      .   S
    Cd1    N127      2.46536  1_565   S
    Cd1    O149      2.37436  1_665   S
    Cd1    N146      2.46083  1_655   S
    Cd1    O165      2.35499      .   S
    Cd1    O162      2.53351      .   S
    N127   C63       1.33652      .   S
    N146   C109      1.33683      .   S
    O151   C55       1.26846      .   S
    N128   C66       1.35167      .   S
    N128   Cd2       2.58756      .   S
    N147   C110      1.35236      .   S
    N147   Cd2       2.54691      .   S
    C49    C51       1.40488      .   S
    C49    C59       1.39915      .   S
    C63    C66       1.40201      .   S
    C63    H16       1.09033      .   S
    C51    C57       1.40446      .   S
    C109   C110      1.40179      .   S
    C109   H39       1.09155      .   S
    C66    C67       1.44930      .   S
    C110   C111      1.44992      .   S
    O165   C100      1.27988      .   S
    C55    C59       1.49953      .   S
    C55    O152      1.29124      .   S
    Cd2    O152      2.22032      .   S
    Cd2    N129      2.32998      .   S
    Cd2    N145      2.36018      .   S
    C59    C58       1.40024      .   S
    C57    H12       1.09027      .   S
    C57    C56       1.40344      .   S
    O162   C100      1.27533      .   S
    C100   C94       1.50173      .   S
    C67    N129      1.35199      .   S
    C67    N130      1.34704      .   S
    C111   N145      1.35088      .   S
    C111   N144      1.34842      .   S
    N129   N131      1.35346      .   S
    N145   N143      1.35345      .   S
    C58    C56       1.39787      .   S
    C58    H13       1.08740      .   S
    H31    C96       1.08739      .   S
    C56    C62       1.50173      .   S
    N130   C73       1.34827      .   S
    N144   C105      1.34688      .   S
    C94    C96       1.39789      .   S
    C94    C95       1.40344      .   S
    C96    C97       1.40023      .   S
    N131   C73       1.35089      .   S
    N131   Cd6       2.36007      .   S
    N143   C105      1.35198      .   S
    N143   Cd6       2.32987      .   S
    C73    C72       1.44993      .   S
    O164   Cd6       2.22019      .   S
    O164   C93       1.29105      .   S
    C105   C104      1.44947      .   S
    C62    O150      1.27532      .   S
    C62    O153      1.27886      .   S
    H30    C95       1.09026      .   S
    O150   Cd5       2.51487      .   S
    C95    C89       1.40428      .   S
    C97    C93       1.49953      .   S
    C97    C87       1.39843      .   S
    H20    C71       1.09142      .   S
    Cd6    N133      2.54674      .   S
    Cd6    N142      2.58775      .   S
    C93    O163      1.26864      .   S
    H35    C101      1.09044      .   S
    O153   Cd5       2.34308      .   S
    C72    C71       1.40178      .   S
    C72    N133      1.35197      .   S
    C104   C101      1.40202      .   S
    C104   N142      1.35164      .   S
    C71    N132      1.33702      .   S
    C89    C87       1.40484      .   S
    C89    C88       1.50405      .   S
    C101   N141      1.33632      .   S
    C87    H28       1.08948      .   S
    N133   C80       1.34375      .   S
    N142   C102      1.34308      .   S
    N132   Cd5       2.45970  1_655   S
    N132   C79       1.34846      .   S
    O161   Cd5       2.37229  1_665   S
    O161   C88       1.27217      .   S
    N141   Cd5       2.46473  1_565   S
    N141   C103      1.34931      .   S
    Cd5    O166      2.24306      .   S
    C88    O160      1.28227      .   S
    C80    C79       1.39642      .   S
    C80    H24       1.09015      .   S
    C102   C103      1.39651      .   S
    C102   H36       1.09116      .   S
    C79    H23       1.08870      .   S
    C103   H37       1.09017      .   S
    O160   Cd3       2.24604      .   S
    H14    C60       1.09005      .   S
    H27    C84       1.09015      .   S
    O166   C107      1.28217      .   S
    H15    C61       1.09000      .   S
    H26    C83       1.09044      .   S
    C84    C83       1.39614      .   S
    C84    N134      1.34927      .   S
    C60    C61       1.39628      .   S
    C60    N125      1.34814      .   S
    C83    N135      1.34404      .   S
    C61    N126      1.34454      .   S
    H38    C106      1.08715      .   S
    C107   O167      1.27178      .   S
    C107   C108      1.50347      .   S
    Cd3    N134      2.46073  1_655   S
    Cd3    O167      2.37056  1_665   S
    Cd3    N125      2.46433  1_565   S
    Cd3    O159      2.34087      .   S
    Cd3    O156      2.51723      .   S
    N134   C82       1.33573      .   S
    N125   C52       1.33770      .   S
    O169   C112      1.26845      .   S
    N135   C85       1.35172      .   S
    N135   Cd4       2.59142      .   S
    N126   C53       1.35200      .   S
    N126   Cd4       2.54207      .   S
    C106   C108      1.40499      .   S
    C106   C116      1.40049      .   S
    C82    C85       1.40222      .   S
    C82    H25       1.09086      .   S
    C108   C114      1.40520      .   S
    C52    C53       1.40193      .   S
    C52    H11       1.09154      .   S
    C85    C86       1.44938      .   S
    C53    C54       1.44994      .   S
    O159   C81       1.28017      .   S
    C112   C116      1.49949      .   S
    C112   O170      1.29106      .   S
    Cd4    O170      2.22013      .   S
    Cd4    N136      2.32957      .   S
    Cd4    N124      2.36077      .   S
    C116   C115      1.40029      .   S
    C114   H40       1.09027      .   S
    C114   C113      1.40358      .   S
    O156   C81       1.27496      .   S
    C86    N136      1.35192      .   S
    C86    N137      1.34696      .   S
    C54    N124      1.35087      .   S
    C115   C113      1.39786      .   S
