# CIF file generated by openbabel 2.4.90, see http://openbabel.sf.net
data_I
_chemical_name_common ''
_cell_length_a 13.019
_cell_length_b 12.951
_cell_length_c 21.117
_cell_angle_alpha 85.765
_cell_angle_beta 85.797
_cell_angle_gamma 69.843
_space_group_name_H-M_alt 'P 1'
_space_group_name_Hall 'P 1'
loop_
    _symmetry_equiv_pos_as_xyz
    x,y,z
loop_
    _atom_site_label
    _atom_site_type_symbol
    _atom_site_fract_x
    _atom_site_fract_y
    _atom_site_fract_z
    _atom_site_occupancy
    Zr0     Zr   0.07167   0.06351   0.18121   1.000
    Zr1     Zr   0.56834   0.55906   0.08798   1.000
    Zr2     Zr   0.93722   0.92756   0.31800   1.000
    Zr3     Zr   0.44160   0.43101   0.41196   1.000
    Zr4     Zr   0.92836   0.93647   0.81877   1.000
    Zr5     Zr   0.43170   0.44093   0.91199   1.000
    Zr6     Zr   0.06282   0.07241   0.68108   1.000
    Zr7     Zr   0.55844   0.56896   0.58800   1.000
    N8      N    0.72544   0.26096   0.00249   1.000
    O9      O    0.85362   0.19916   0.09127   1.000
    O10     O    0.78512   0.13967   0.91229   1.000
    N11     N    0.26116   0.72546   0.50243   1.000
    O12     O    0.19900   0.85383   0.59125   1.000
    O13     O    0.13999   0.78472   0.41214   1.000
    N14     N    0.73888   0.27451   0.49754   1.000
    O15     O    0.86005   0.21524   0.58761   1.000
    O16     O    0.80104   0.14613   0.40849   1.000
    N17     N    0.27458   0.73902   0.99747   1.000
    O18     O    0.21491   0.86031   0.08767   1.000
    O19     O    0.14641   0.80082   0.90870   1.000
    N20     N    0.18138   0.16371   0.42519   1.000
    O21     O    0.13421   0.13419   0.32396   1.000
    O22     O    0.28778   0.27174   0.42959   1.000
    O23     O    0.09513   0.06391   0.37262   1.000
    N24     N    0.16311   0.18208   0.92520   1.000
    O25     O    0.13298   0.13563   0.82386   1.000
    O26     O    0.06373   0.09538   0.87285   1.000
    O27     O    0.27164   0.28796   0.92960   1.000
    N28     N    0.81865   0.83627   0.57478   1.000
    O29     O    0.90491   0.93607   0.62711   1.000
    O30     O    0.71225   0.72824   0.57038   1.000
    O31     O    0.86582   0.86579   0.67601   1.000
    N32     N    0.83693   0.81790   0.07476   1.000
    O33     O    0.72840   0.71202   0.07036   1.000
    O34     O    0.86706   0.86434   0.17588   1.000
    O35     O    0.93631   0.90460   0.12712   1.000
    O36     O    0.87666   0.86641   0.97159   1.000
    O37     O    0.38282   0.67559   0.04146   1.000
    O38     O    0.66948   0.36929   0.04583   1.000
    O39     O    0.12337   0.13357   0.02838   1.000
    O40     O    0.36932   0.66983   0.54574   1.000
    O41     O    0.67518   0.38286   0.54160   1.000
    O42     O    0.13299   0.12393   0.52832   1.000
    O43     O    0.33055   0.63069   0.95409   1.000
    O44     O    0.61721   0.32438   0.95851   1.000
    O45     O    0.32486   0.61711   0.45836   1.000
    O46     O    0.63072   0.33014   0.45423   1.000
    O47     O    0.86704   0.87605   0.47142   1.000
loop_
    _geom_bond_atom_site_label_1
    _geom_bond_atom_site_label_2
    _geom_bond_distance
    _geom_bond_site_symmetry_2
    _ccdc_geom_bond_type
    N8     O9        2.50128      .   S
    Zr0    O9        3.40777  1_455   S
    N8     O10       2.46640  1_554   S
    Zr4    O10       3.33894  1_565   S
    N11    O12       2.49964      .   S
    Zr6    O12       3.40525  1_545   S
    N11    O13       2.47047      .   S
    Zr2    O13       3.34709  1_655   S
    N14    O15       2.46683      .   S
    Zr6    O15       3.33851  1_455   S
    N14    O16       2.50325      .   S
    Zr2    O16       3.41341  1_565   S
    N17    O18       2.46645  1_556   S
    Zr0    O18       3.33922  1_545   S
    N17    O19       2.50107      .   S
    Zr4    O19       3.40756  1_655   S
    N20    O21       2.35966      .   S
    Zr0    O21       3.44512      .   S
    N20    O22       2.29320      .   S
    Zr3    O22       3.32086      .   S
    N20    O23       2.35772      .   S
    Zr2    O23       3.43876  1_665   S
    N24    O25       2.36027      .   S
    Zr6    O25       3.44670      .   S
    N24    O26       2.35609      .   S
    Zr4    O26       3.43324  1_665   S
    N24    O27       2.29323      .   S
    Zr5    O27       3.32082      .   S
    N28    O29       2.35496      .   S
    Zr6    O29       3.43304  1_445   S
    N28    O30       2.29320      .   S
    Zr7    O30       3.32086      .   S
    N28    O31       2.35977      .   S
    Zr4    O31       3.44523      .   S
    N32    O33       2.29321      .   S
    Zr1    O33       3.32081      .   S
    N32    O34       2.35600      .   S
    Zr2    O34       3.43390      .   S
    N32    O35       2.35617      .   S
    Zr0    O35       3.43335  1_445   S
    Zr4    O36       3.37055      .   S
    N32    O36       2.29463  1_554   S
    Zr1    O37       2.58707      .   S
    N17    O37       1.67476  1_556   S
    Zr1    O38       2.54705      .   S
    N8     O38       1.65052      .   S
    Zr0    O39       3.37076      .   S
    N24    O39       2.29479  1_556   S
    Zr7    O40       2.54915      .   S
    N11    O40       1.65254      .   S
    Zr7    O41       2.58549      .   S
    N14    O41       1.67350      .   S
    Zr6    O42       3.36978      .   S
    N20    O42       2.29394      .   S
    Zr5    O43       2.54665      .   S
    N17    O43       1.65094      .   S
    Zr5    O44       2.58698      .   S
    N8     O44       1.67461  1_554   S
    Zr3    O45       2.58548      .   S
    N11    O45       1.67353      .   S
    Zr3    O46       2.54919      .   S
    N14    O46       1.65252      .   S
    Zr2    O47       3.38265      .   S
    N28    O47       2.29834      .   S
