# CIF file generated by openbabel 2.4.90, see http://openbabel.sf.net
data_I
_chemical_name_common ''
_cell_length_a 13.019
_cell_length_b 12.951
_cell_length_c 21.117
_cell_angle_alpha 85.765
_cell_angle_beta 85.797
_cell_angle_gamma 69.843
_space_group_name_H-M_alt 'P 1'
_space_group_name_Hall 'P 1'
loop_
    _symmetry_equiv_pos_as_xyz
    x,y,z
loop_
    _atom_site_label
    _atom_site_type_symbol
    _atom_site_fract_x
    _atom_site_fract_y
    _atom_site_fract_z
    _atom_site_occupancy
    Zr0     Zr   0.07167   0.06351   0.18121   1.000
    Zr1     Zr   0.56834   0.55906   0.08798   1.000
    Zr2     Zr   0.93722   0.92756   0.31800   1.000
    Zr3     Zr   0.44160   0.43101   0.41196   1.000
    Zr4     Zr   0.92836   0.93647   0.81877   1.000
    Zr5     Zr   0.43170   0.44093   0.91199   1.000
    Zr6     Zr   0.06282   0.07241   0.68108   1.000
    Zr7     Zr   0.55844   0.56896   0.58800   1.000
    N8      N    0.72544   0.26096   0.00249   1.000
    O9      O    0.85362   0.19916   0.09127   1.000
    O10     O    0.65646   0.36966   0.03192   1.000
    O11     O    0.78512   0.13967   0.91229   1.000
    O12     O    0.68251   0.36891   0.05974   1.000
    O13     O    0.61743   0.31313   0.94390   1.000
    O14     O    0.61699   0.33564   0.97312   1.000
    N15     N    0.26116   0.72546   0.50243   1.000
    O16     O    0.36884   0.68283   0.55973   1.000
    O17     O    0.19900   0.85383   0.59125   1.000
    O18     O    0.13999   0.78472   0.41214   1.000
    O19     O    0.36980   0.65682   0.53175   1.000
    O20     O    0.31358   0.61723   0.44378   1.000
    O21     O    0.33614   0.61700   0.47293   1.000
    N22     N    0.73888   0.27451   0.49754   1.000
    O23     O    0.63024   0.34315   0.46822   1.000
    O24     O    0.66390   0.38297   0.52703   1.000
    O25     O    0.63120   0.31713   0.44024   1.000
    O26     O    0.86005   0.21524   0.58761   1.000
    O27     O    0.68646   0.38274   0.55618   1.000
    O28     O    0.80104   0.14613   0.40849   1.000
    N29     N    0.27458   0.73902   0.99747   1.000
    O30     O    0.34357   0.63032   0.96803   1.000
    O31     O    0.38260   0.68685   0.05607   1.000
    O32     O    0.38304   0.66434   0.02685   1.000
    O33     O    0.31752   0.63107   0.94015   1.000
    O34     O    0.21491   0.86031   0.08767   1.000
    O35     O    0.14641   0.80082   0.90870   1.000
    N36     N    0.18138   0.16371   0.42519   1.000
    O37     O    0.13421   0.13419   0.32396   1.000
    O38     O    0.12077   0.11213   0.52396   1.000
    O39     O    0.14521   0.13572   0.53269   1.000
    O40     O    0.28778   0.27174   0.42959   1.000
    O41     O    0.09513   0.06391   0.37262   1.000
    N42     N    0.16311   0.18208   0.92520   1.000
    O43     O    0.13298   0.13563   0.82386   1.000
    O44     O    0.06373   0.09538   0.87285   1.000
    O45     O    0.27164   0.28796   0.92960   1.000
    O46     O    0.13519   0.14577   0.03276   1.000
    O47     O    0.11156   0.12137   0.02400   1.000
    N48     N    0.81865   0.83627   0.57478   1.000
    O49     O    0.85482   0.86425   0.46704   1.000
    O50     O    0.90491   0.93607   0.62711   1.000
    O51     O    0.87927   0.88785   0.47579   1.000
    O52     O    0.71225   0.72824   0.57038   1.000
    O53     O    0.86582   0.86579   0.67601   1.000
    N54     N    0.83693   0.81790   0.07476   1.000
    O55     O    0.86485   0.85421   0.96721   1.000
    O56     O    0.72840   0.71202   0.07036   1.000
    O57     O    0.86706   0.86434   0.17588   1.000
    O58     O    0.88848   0.87861   0.97597   1.000
    O59     O    0.93631   0.90460   0.12712   1.000
loop_
    _geom_bond_atom_site_label_1
    _geom_bond_atom_site_label_2
    _geom_bond_distance
    _geom_bond_site_symmetry_2
    _ccdc_geom_bond_type
    N8     O9        2.50128      .   S
    Zr0    O9        3.40777  1_455   S
    N8     O10       1.53325      .   S
    Zr1    O10       2.65039      .   S
    N8     O11       2.46640  1_554   S
    Zr4    O11       3.33894  1_565   S
    N8     O12       1.82778      .   S
    Zr1    O12       2.48869      .   S
    N8     O13       1.85517  1_554   S
    Zr5    O13       2.52113      .   S
    N8     O14       1.55318  1_554   S
    Zr5    O14       2.69708      .   S
    N15    O16       1.83057      .   S
    Zr7    O16       2.49027      .   S
    N15    O17       2.49964      .   S
    Zr6    O17       3.40525  1_545   S
    N15    O18       2.47047      .   S
    Zr2    O18       3.34709  1_655   S
    N15    O19       1.53457      .   S
    Zr7    O19       2.65311      .   S
    N15    O20       1.85410      .   S
    Zr3    O20       2.52000      .   S
    N15    O21       1.55214      .   S
    Zr3    O21       2.69526      .   S
    N22    O23       1.53456      .   S
    Zr3    O23       2.65315      .   S
    N22    O24       1.55216      .   S
    Zr7    O24       2.69523      .   S
    N22    O25       1.83053      .   S
    Zr3    O25       2.49030      .   S
    N22    O26       2.46683      .   S
    Zr6    O26       3.33851  1_455   S
    N22    O27       1.85401      .   S
    Zr7    O27       2.52003      .   S
    N22    O28       2.50325      .   S
    Zr2    O28       3.41341  1_565   S
    N29    O30       1.53326      .   S
    Zr5    O30       2.65020      .   S
    N29    O31       1.85533  1_556   S
    Zr1    O31       2.52120      .   S
    N29    O32       1.55329  1_556   S
    Zr1    O32       2.69717      .   S
    N29    O33       1.82873      .   S
    Zr5    O33       2.48822      .   S
    N29    O34       2.46645  1_556   S
    Zr0    O34       3.33922  1_545   S
    N29    O35       2.50107      .   S
    Zr4    O35       3.40756  1_655   S
    N36    O37       2.35966      .   S
    Zr0    O37       3.44512      .   S
    N36    O38       2.30977      .   S
    Zr6    O38       3.38984      .   S
    N36    O39       2.31206      .   S
    Zr6    O39       3.37285      .   S
    N36    O40       2.29320      .   S
    Zr3    O40       3.32086      .   S
    N36    O41       2.35772      .   S
    Zr2    O41       3.43876  1_665   S
    N42    O43       2.36027      .   S
    Zr6    O43       3.44670      .   S
    N42    O44       2.35609      .   S
    Zr4    O44       3.43324  1_665   S
    N42    O45       2.29323      .   S
    Zr5    O45       3.32082      .   S
    N42    O46       2.31322  1_556   S
    Zr0    O46       3.37341      .   S
    N42    O47       2.31028  1_556   S
    Zr0    O47       3.39124      .   S
    N48    O49       2.31678      .   S
    Zr2    O49       3.38512      .   S
    N48    O50       2.35496      .   S
    Zr6    O50       3.43304  1_445   S
    N48    O51       2.31378      .   S
    Zr2    O51       3.40324      .   S
    N48    O52       2.29320      .   S
    Zr7    O52       3.32086      .   S
    N48    O53       2.35977      .   S
    Zr4    O53       3.44523      .   S
    N54    O55       2.31308  1_554   S
    Zr4    O55       3.37318      .   S
    N54    O56       2.29321      .   S
    Zr1    O56       3.32081      .   S
    N54    O57       2.35600      .   S
    Zr2    O57       3.43390      .   S
    N54    O58       2.31011  1_554   S
    Zr4    O58       3.39105      .   S
    N54    O59       2.35617      .   S
    Zr0    O59       3.43335  1_445   S
