# CIF file generated by openbabel 2.4.90, see http://openbabel.sf.net
data_I
_chemical_name_common ''
_cell_length_a 17.2
_cell_length_b 18.534
_cell_length_c 18.532
_cell_angle_alpha 77.738
_cell_angle_beta 62.555
_cell_angle_gamma 62.555
_space_group_name_H-M_alt 'P 1'
_space_group_name_Hall 'P 1'
loop_
    _symmetry_equiv_pos_as_xyz
    x,y,z
loop_
    _atom_site_label
    _atom_site_type_symbol
    _atom_site_fract_x
    _atom_site_fract_y
    _atom_site_fract_z
    _atom_site_occupancy
    K0      K    0.43802   0.12448   0.62451   1.000
    K1      K    0.43801   0.62448   0.12450   1.000
    K2      K    0.43802   0.62447   0.62450   1.000
    K3      K    0.93800   0.12448   0.12450   1.000
    K4      K    0.93800   0.12448   0.62451   1.000
    K5      K    0.93800   0.62448   0.12450   1.000
    K6      K    0.93801   0.62447   0.62450   1.000
    K7      K    0.06199   0.37552   0.37554   1.000
    K8      K    0.06200   0.37552   0.87555   1.000
    K9      K    0.06200   0.87552   0.37554   1.000
    K10     K    0.06201   0.87551   0.87555   1.000
    K11     K    0.56198   0.37552   0.37554   1.000
    K12     K    0.56199   0.37552   0.87555   1.000
    K13     K    0.56199   0.87552   0.37554   1.000
    K14     K    0.56200   0.87551   0.87555   1.000
    Y15     Y    0.31275   0.37474   0.37477   1.000
    Y16     Y    0.31276   0.37474   0.87477   1.000
    Y17     Y    0.31275   0.87474   0.37477   1.000
    Y18     Y    0.31276   0.87473   0.87470   1.000
    Y19     Y    0.81274   0.37474   0.37477   1.000
    Y20     Y    0.81275   0.37474   0.87470   1.000
    Y21     Y    0.81274   0.87474   0.37477   1.000
    Y22     Y    0.81275   0.87473   0.87477   1.000
    Y23     Y    0.18725   0.12526   0.12527   1.000
    Y24     Y    0.18726   0.12525   0.62528   1.000
    Y25     Y    0.18725   0.62526   0.12528   1.000
    Y26     Y    0.18727   0.62525   0.62528   1.000
    Y27     Y    0.68724   0.12526   0.12527   1.000
    Y28     Y    0.68725   0.12526   0.62528   1.000
    Y29     Y    0.68724   0.62526   0.12528   1.000
    Y30     Y    0.68726   0.62525   0.62528   1.000
    K31     K    0.43801   0.12448   0.12450   1.000
