# CIF file generated by openbabel 2.4.90, see http://openbabel.sf.net
data_I
_chemical_name_common ''
_cell_length_a 17.2
_cell_length_b 18.534
_cell_length_c 18.532
_cell_angle_alpha 77.738
_cell_angle_beta 62.555
_cell_angle_gamma 62.555
_space_group_name_H-M_alt 'P 1'
_space_group_name_Hall 'P 1'
loop_
    _symmetry_equiv_pos_as_xyz
    x,y,z
loop_
    _atom_site_label
    _atom_site_type_symbol
    _atom_site_fract_x
    _atom_site_fract_y
    _atom_site_fract_z
    _atom_site_occupancy
    C0      C    0.43801   0.12448   0.12450   1.000
    C1      C    0.43802   0.12448   0.62451   1.000
    C2      C    0.43801   0.62448   0.12450   1.000
    C3      C    0.43802   0.62447   0.62450   1.000
    C4      C    0.93800   0.12448   0.12450   1.000
    C5      C    0.93800   0.12448   0.62451   1.000
    C6      C    0.93800   0.62448   0.12450   1.000
    C7      C    0.93801   0.62447   0.62450   1.000
    C8      C    0.06199   0.37552   0.37554   1.000
    C9      C    0.06200   0.37552   0.87555   1.000
    C10     C    0.06200   0.87552   0.37554   1.000
    C11     C    0.06201   0.87551   0.87555   1.000
    C12     C    0.56198   0.37552   0.37554   1.000
    C13     C    0.56199   0.37552   0.87555   1.000
    C14     C    0.56199   0.87552   0.37554   1.000
    C15     C    0.56200   0.87551   0.87555   1.000
    C16     C    0.31275   0.37474   0.37477   1.000
    C17     C    0.31276   0.37474   0.87477   1.000
    C18     C    0.31275   0.87474   0.37477   1.000
    C19     C    0.31276   0.87473   0.87470   1.000
    C20     C    0.81274   0.37474   0.37477   1.000
    C21     C    0.81275   0.37474   0.87470   1.000
    C22     C    0.81274   0.87474   0.37477   1.000
    C23     C    0.81275   0.87473   0.87477   1.000
    C24     C    0.18725   0.12526   0.12527   1.000
    C25     C    0.18726   0.12525   0.62528   1.000
    C26     C    0.18725   0.62526   0.12528   1.000
    C27     C    0.18727   0.62525   0.62528   1.000
    C28     C    0.68724   0.12526   0.12527   1.000
    C29     C    0.68725   0.12526   0.62528   1.000
    C30     C    0.68724   0.62526   0.12528   1.000
    C31     C    0.68726   0.62525   0.62528   1.000
    C32     C    0.29219   0.23915   0.01120   1.000
    C33     C    0.29220   0.23914   0.51124   1.000
    C34     C    0.29220   0.73914   0.01120   1.000
    C35     C    0.29220   0.73914   0.51124   1.000
    C36     C    0.79218   0.23914   0.01124   1.000
    C37     C    0.79219   0.23914   0.51124   1.000
    C38     C    0.79219   0.73914   0.01123   1.000
    C39     C    0.79219   0.73914   0.51124   1.000
    C40     C    0.29218   0.01123   0.23917   1.000
    C41     C    0.29219   0.01122   0.73918   1.000
    C42     C    0.29219   0.51122   0.23916   1.000
    C43     C    0.29221   0.51121   0.73917   1.000
    C44     C    0.79217   0.01123   0.23917   1.000
    C45     C    0.79219   0.01122   0.73918   1.000
    C46     C    0.79218   0.51122   0.23916   1.000
    C47     C    0.79220   0.51121   0.73917   1.000
    C48     C    0.30326   0.48910   0.48914   1.000
    C49     C    0.30327   0.48910   0.98915   1.000
    C50     C    0.30327   0.98910   0.48915   1.000
    C51     C    0.30328   0.98909   0.98916   1.000
    C52     C    0.80325   0.48911   0.48910   1.000
    C53     C    0.80326   0.48910   0.98915   1.000
    C54     C    0.80326   0.98910   0.48915   1.000
    C55     C    0.80327   0.98909   0.98916   1.000
    C56     C    0.03117   0.26121   0.26123   1.000
    C57     C    0.03118   0.26120   0.76124   1.000
    C58     C    0.03117   0.76120   0.26123   1.000
    C59     C    0.03119   0.76119   0.76123   1.000
    C60     C    0.53116   0.26120   0.26123   1.000
    C61     C    0.53117   0.26120   0.76124   1.000
    C62     C    0.53116   0.76120   0.26123   1.000
    C63     C    0.53117   0.76119   0.76124   1.000
    C64     C    0.20781   0.26086   0.48881   1.000
    C65     C    0.20782   0.26086   0.98881   1.000
    C66     C    0.20782   0.76086   0.48880   1.000
    C67     C    0.20782   0.76085   0.98881   1.000
    C68     C    0.70780   0.26086   0.48881   1.000
    C69     C    0.70781   0.26085   0.98881   1.000
    C70     C    0.70781   0.76086   0.48880   1.000
    C71     C    0.70782   0.76085   0.98881   1.000
    C72     C    0.20781   0.48878   0.26088   1.000
    C73     C    0.20782   0.48878   0.76088   1.000
    C74     C    0.20782   0.98878   0.26087   1.000
    C75     C    0.20783   0.98877   0.76088   1.000
    C76     C    0.70780   0.48879   0.26088   1.000
    C77     C    0.70781   0.48878   0.76089   1.000
    C78     C    0.70781   0.98878   0.26087   1.000
    C79     C    0.70782   0.98877   0.76088   1.000
    C80     C    0.19674   0.01091   0.01089   1.000
    C81     C    0.19674   0.01090   0.51090   1.000
    C82     C    0.19674   0.51090   0.01090   1.000
    C83     C    0.19675   0.51089   0.51090   1.000
    C84     C    0.69673   0.01090   0.01089   1.000
    C85     C    0.69673   0.01090   0.51090   1.000
    C86     C    0.69673   0.51090   0.01090   1.000
    C87     C    0.69674   0.51089   0.51090   1.000
    C88     C    0.46883   0.23880   0.23881   1.000
    C89     C    0.46885   0.23880   0.73882   1.000
    C90     C    0.46883   0.73880   0.23881   1.000
    C91     C    0.46885   0.73879   0.73882   1.000
    C92     C    0.96882   0.23880   0.23881   1.000
    C93     C    0.96883   0.23880   0.73882   1.000
    C94     C    0.96882   0.73880   0.23881   1.000
    C95     C    0.96884   0.73879   0.73882   1.000
    C96     C    0.34586   0.27631   0.47387   1.000
    C97     C    0.34587   0.27630   0.97388   1.000
    C98     C    0.34586   0.77631   0.47387   1.000
    C99     C    0.34587   0.77629   0.97388   1.000
    C100    C    0.84585   0.27631   0.47387   1.000
    C101    C    0.84586   0.27630   0.97388   1.000
    C102    C    0.84585   0.77631   0.47387   1.000
    C103    C    0.84586   0.77629   0.97387   1.000
    C104    C    0.30065   0.18536   0.06570   1.000
    C105    C    0.30066   0.18535   0.56571   1.000
    C106    C    0.30065   0.68536   0.06570   1.000
    C107    C    0.30066   0.68535   0.56570   1.000
    C108    C    0.80064   0.18536   0.06570   1.000
    C109    C    0.80065   0.18535   0.56571   1.000
    C110    C    0.80064   0.68536   0.06570   1.000
    C111    C    0.80065   0.68535   0.56570   1.000
    C112    C    0.34586   0.47384   0.27633   1.000
    C113    C    0.34587   0.47384   0.77634   1.000
    C114    C    0.34585   0.97385   0.27634   1.000
    C115    C    0.34587   0.97384   0.77634   1.000
    C116    C    0.84584   0.47385   0.27633   1.000
    C117    C    0.84586   0.47384   0.77634   1.000
    C118    C    0.84585   0.97385   0.27634   1.000
    C119    C    0.84586   0.97384   0.77634   1.000
    C120    C    0.30063   0.06570   0.18539   1.000
    C121    C    0.30064   0.06569   0.68540   1.000
    C122    C    0.30064   0.56569   0.18539   1.000
    C123    C    0.30065   0.56568   0.68539   1.000
    C124    C    0.80062   0.06569   0.18539   1.000
    C125    C    0.80063   0.06569   0.68540   1.000
    C126    C    0.80062   0.56569   0.18539   1.000
    C127    C    0.80064   0.56568   0.68539   1.000
    C128    C    0.31933   0.02660   0.02662   1.000
    C129    C    0.31934   0.02659   0.52662   1.000
    C130    C    0.31933   0.52660   0.02662   1.000
    C131    C    0.31935   0.52659   0.52662   1.000
    C132    C    0.81932   0.02660   0.02662   1.000
    C133    C    0.81933   0.02659   0.52662   1.000
    C134    C    0.81932   0.52660   0.02662   1.000
    C135    C    0.81934   0.52659   0.52662   1.000
    C136    C    0.36616   0.43501   0.43505   1.000
    C137    C    0.36616   0.43501   0.93506   1.000
    C138    C    0.36616   0.93501   0.43506   1.000
    C139    C    0.36617   0.93500   0.93506   1.000
    C140    C    0.86614   0.43502   0.43505   1.000
    C141    C    0.86615   0.43501   0.93506   1.000
    C142    C    0.86614   0.93501   0.43506   1.000
    C143    C    0.86616   0.93500   0.93506   1.000
    C144    C    0.12180   0.22416   0.22417   1.000
    C145    C    0.12181   0.22415   0.72418   1.000
    C146    C    0.12180   0.72415   0.22418   1.000
    C147    C    0.12181   0.72414   0.72418   1.000
    C148    C    0.62179   0.22415   0.22417   1.000
    C149    C    0.62180   0.22415   0.72418   1.000
    C150    C    0.62178   0.72415   0.22418   1.000
    C151    C    0.62180   0.72414   0.72418   1.000
    C152    C    0.48576   0.31537   0.31539   1.000
    C153    C    0.48577   0.31537   0.81540   1.000
    C154    C    0.48575   0.81538   0.31539   1.000
    C155    C    0.48577   0.81536   0.81540   1.000
    C156    C    0.98574   0.31538   0.31539   1.000
    C157    C    0.98576   0.31537   0.81540   1.000
    C158    C    0.98574   0.81538   0.31500   1.000
    C159    C    0.98576   0.81536   0.81540   1.000
    C160    C    0.15415   0.22370   0.02617   1.000
    C161    C    0.15415   0.22369   0.52618   1.000
    C162    C    0.15415   0.72369   0.02617   1.000
    C163    C    0.15416   0.72368   0.52617   1.000
    C164    C    0.65414   0.22370   0.02617   1.000
    C165    C    0.65415   0.22369   0.52618   1.000
    C166    C    0.65414   0.72369   0.02617   1.000
    C167    C    0.65415   0.72368   0.52617   1.000
    C168    C    0.19936   0.31465   0.43434   1.000
    C169    C    0.19936   0.31464   0.93435   1.000
    C170    C    0.19936   0.81465   0.43434   1.000
    C171    C    0.19937   0.81464   0.93435   1.000
    C172    C    0.69934   0.31465   0.43430   1.000
    C173    C    0.69935   0.31464   0.93435   1.000
    C174    C    0.69934   0.81465   0.43435   1.000
    C175    C    0.69936   0.81464   0.93435   1.000
    C176    C    0.15415   0.02616   0.22370   1.000
    C177    C    0.15416   0.02615   0.72371   1.000
    C178    C    0.15415   0.52616   0.22371   1.000
    C179    C    0.15416   0.52615   0.72371   1.000
    C180    C    0.65414   0.02615   0.22370   1.000
    C181    C    0.65415   0.02615   0.72371   1.000
    C182    C    0.65414   0.52616   0.22371   1.000
    C183    C    0.65415   0.52615   0.72370   1.000
    C184    C    0.19936   0.43431   0.31466   1.000
    C185    C    0.19937   0.43431   0.81467   1.000
    C186    C    0.19937   0.93431   0.31466   1.000
    C187    C    0.19938   0.93430   0.81466   1.000
    C188    C    0.69935   0.43432   0.31466   1.000
    C189    C    0.69936   0.43431   0.81467   1.000
    C190    C    0.69936   0.93431   0.31466   1.000
    C191    C    0.69937   0.93430   0.81466   1.000
    C192    C    0.18067   0.47340   0.47340   1.000
    C193    C    0.18068   0.47340   0.97343   1.000
    C194    C    0.18067   0.97341   0.47343   1.000
    C195    C    0.18068   0.97340   0.97343   1.000
    C196    C    0.68066   0.47341   0.47343   1.000
    C197    C    0.68067   0.47340   0.97343   1.000
    C198    C    0.68066   0.97341   0.47343   1.000
    C199    C    0.68067   0.97340   0.97343   1.000
    C200    C    0.13385   0.06500   0.06498   1.000
    C201    C    0.13385   0.06499   0.56499   1.000
    C202    C    0.13385   0.56499   0.06499   1.000
    C203    C    0.13386   0.56498   0.56499   1.000
    C204    C    0.63384   0.06499   0.06498   1.000
    C205    C    0.63384   0.06499   0.56499   1.000
    C206    C    0.63384   0.56499   0.06499   1.000
    C207    C    0.63385   0.56498   0.56500   1.000
    C208    C    0.37821   0.27585   0.27586   1.000
    C209    C    0.37822   0.27585   0.77587   1.000
    C210    C    0.37820   0.77585   0.27580   1.000
    C211    C    0.37822   0.77584   0.77587   1.000
    C212    C    0.87819   0.27586   0.27586   1.000
    C213    C    0.87821   0.27585   0.77587   1.000
    C214    C    0.87819   0.77585   0.27587   1.000
    C215    C    0.87821   0.77584   0.77587   1.000
    C216    C    0.01425   0.18463   0.18465   1.000
    C217    C    0.01426   0.18462   0.68466   1.000
    C218    C    0.01425   0.68463   0.18465   1.000
    C219    C    0.01426   0.68462   0.68465   1.000
    C220    C    0.51424   0.18463   0.18460   1.000
    C221    C    0.51425   0.18463   0.68460   1.000
    C222    C    0.51424   0.68463   0.18465   1.000
    C223    C    0.51425   0.68462   0.68466   1.000
    O224    O    0.16529   0.03795   0.03793   1.000
    O225    O    0.18871   0.99215   0.99216   1.000
    O226    O    0.25001   0.00000   0.00003   1.000
    O227    O    0.66528   0.03795   0.03793   1.000
    O228    O    0.68870   0.99215   0.99216   1.000
    O229    O    0.75000   1.00000   0.00003   1.000
    O230    O    0.16529   0.53795   0.03794   1.000
    O231    O    0.18871   0.49215   0.99216   1.000
    O232    O    0.25000   0.50000   0.00002   1.000
    O233    O    0.66528   0.53795   0.03794   1.000
    O234    O    0.68870   0.49215   0.99216   1.000
    O235    O    0.74999   0.50000   0.00002   1.000
    O236    O    0.29642   0.71225   0.03845   1.000
    O237    O    0.31903   0.75772   0.99254   1.000
    O238    O    0.25001   0.75000   0.00000   1.000
    O239    O    0.29642   0.21225   0.03845   1.000
    O240    O    0.31903   0.25772   0.99254   1.000
    O241    O    0.25001   0.25000   0.00000   1.000
    O242    O    0.79641   0.71225   0.03846   1.000
    O243    O    0.81903   0.75772   0.99255   1.000
    O244    O    0.75000   0.74999   0.00002   1.000
    O245    O    0.79641   0.21225   0.03847   1.000
    O246    O    0.81902   0.25772   0.99256   1.000
    O247    O    0.75000   0.25000   0.00002   1.000
    O248    O    0.17070   0.17448   0.07572   1.000
    O249    O    0.18098   0.24228   0.00749   1.000
    O250    O    0.17070   0.67448   0.07572   1.000
    O251    O    0.18099   0.74227   0.00749   1.000
    O252    O    0.67069   0.17448   0.07572   1.000
    O253    O    0.68097   0.24228   0.00749   1.000
    O254    O    0.67069   0.67448   0.07572   1.000
    O255    O    0.68098   0.74227   0.00749   1.000
    O256    O    0.25329   0.07593   0.07594   1.000
    O257    O    0.31130   0.00785   0.00789   1.000
    O258    O    0.25329   0.57593   0.07595   1.000
    O259    O    0.31130   0.50785   0.00788   1.000
    O260    O    0.75328   0.07593   0.07594   1.000
    O261    O    0.81130   0.00784   0.00789   1.000
    O262    O    0.75328   0.57593   0.07595   1.000
    O263    O    0.81129   0.50785   0.00788   1.000
    O264    O    0.74394   0.15531   0.09548   1.000
    O265    O    0.24395   0.15531   0.09548   1.000
    O266    O    0.10075   0.15495   0.15496   1.000
    O267    O    0.17070   0.07571   0.17448   1.000
    O268    O    0.15452   0.17471   0.17472   1.000
    O269    O    0.60074   0.15495   0.15493   1.000
    O270    O    0.67069   0.07571   0.17448   1.000
    O271    O    0.65452   0.17471   0.17472   1.000
    O272    O    0.10075   0.65495   0.15496   1.000
    O273    O    0.24394   0.59548   0.15533   1.000
    O274    O    0.17070   0.57571   0.17449   1.000
    O275    O    0.15452   0.67471   0.17473   1.000
    O276    O    0.60074   0.65495   0.15496   1.000
    O277    O    0.74393   0.59548   0.15533   1.000
    O278    O    0.67069   0.57571   0.17449   1.000
    O279    O    0.65451   0.67471   0.17473   1.000
    O280    O    0.49154   0.21172   0.21170   1.000
    O281    O    0.99153   0.21172   0.21173   1.000
    O282    O    0.49153   0.71172   0.21173   1.000
    O283    O    0.99153   0.71172   0.21173   1.000
    O284    O    0.79640   0.53846   0.21227   1.000
    O285    O    0.79640   0.03846   0.21228   1.000
    O286    O    0.29641   0.53845   0.21227   1.000
    O287    O    0.29641   0.03846   0.21228   1.000
    O288    O    0.68097   0.00747   0.24228   1.000
    O289    O    0.18098   0.00747   0.24228   1.000
    O290    O    0.18098   0.50747   0.24229   1.000
    O291    O    0.68097   0.50747   0.24229   1.000
    O292    O    0.57647   0.24268   0.24270   1.000
    O293    O    0.07648   0.24268   0.24270   1.000
    O294    O    0.57647   0.74268   0.24270   1.000
    O295    O    0.07648   0.74268   0.24270   1.000
    O296    O    0.99999   0.75000   0.25002   1.000
    O297    O    0.92351   0.75733   0.25734   1.000
    O298    O    0.99999   0.25001   0.25002   1.000
    O299    O    0.92351   0.25733   0.25733   1.000
    O300    O    0.49999   0.75000   0.25002   1.000
    O301    O    0.42352   0.75733   0.25730   1.000
    O302    O    0.50000   0.25000   0.25002   1.000
    O303    O    0.42352   0.25733   0.25733   1.000
    O304    O    0.25000   0.50000   0.25002   1.000
    O305    O    0.31903   0.49253   0.25775   1.000
    O306    O    0.74999   0.50000   0.25002   1.000
    O307    O    0.81901   0.49253   0.25775   1.000
    O308    O    0.74999   0.00000   0.25002   1.000
    O309    O    0.81901   0.99254   0.25775   1.000
    O310    O    0.25000   0.00000   0.25002   1.000
    O311    O    0.31902   0.99254   0.25775   1.000
    O312    O    0.70358   0.96155   0.28776   1.000
    O313    O    0.20359   0.96155   0.28776   1.000
    O314    O    0.70357   0.46155   0.28777   1.000
    O315    O    0.20359   0.46155   0.28777   1.000
    O316    O    0.00846   0.28829   0.28831   1.000
    O317    O    0.00846   0.78829   0.28811   1.000
    O318    O    0.50846   0.28829   0.28831   1.000
    O319    O    0.50846   0.78829   0.28831   1.000
    O320    O    0.34548   0.82530   0.32528   1.000
    O321    O    0.34548   0.32530   0.32531   1.000
    O322    O    0.84546   0.32530   0.32531   1.000
    O323    O    0.84547   0.82530   0.32532   1.000
    O324    O    0.32930   0.42429   0.32555   1.000
    O325    O    0.82929   0.42430   0.32555   1.000
    O326    O    0.82929   0.92430   0.32555   1.000
    O327    O    0.32930   0.92430   0.32555   1.000
    O328    O    0.25606   0.90453   0.34471   1.000
    O329    O    0.75605   0.90453   0.34471   1.000
    O330    O    0.89924   0.84506   0.34488   1.000
    O331    O    0.89924   0.34506   0.34508   1.000
    O332    O    0.39925   0.34506   0.34508   1.000
    O333    O    0.39925   0.84506   0.34508   1.000
    O334    O    0.75604   0.34470   0.40453   1.000
    O335    O    0.74670   0.42408   0.42410   1.000
    O336    O    0.82929   0.32553   0.42432   1.000
    O337    O    0.24671   0.92408   0.42410   1.000
    O338    O    0.32931   0.82552   0.42432   1.000
    O339    O    0.74670   0.92408   0.42410   1.000
    O340    O    0.82930   0.82552   0.42432   1.000
    O341    O    0.25605   0.34469   0.40455   1.000
    O342    O    0.24671   0.42407   0.42408   1.000
    O343    O    0.32930   0.32552   0.42432   1.000
    O344    O    0.13068   0.84508   0.40494   1.000
    O345    O    0.70357   0.28776   0.46155   1.000
    O346    O    0.20359   0.28775   0.46157   1.000
    O347    O    0.20359   0.78775   0.46157   1.000
    O348    O    0.70358   0.78775   0.46157   1.000
    O349    O    0.83470   0.46206   0.46207   1.000
    O350    O    0.33471   0.46206   0.46209   1.000
    O351    O    0.83470   0.96206   0.46210   1.000
    O352    O    0.33471   0.96206   0.46210   1.000
    O353    O    0.18871   0.49215   0.49215   1.000
    O354    O    0.18871   0.99215   0.49216   1.000
    O355    O    0.68870   0.99216   0.49216   1.000
    O356    O    0.68870   0.49215   0.49216   1.000
    O357    O    0.31903   0.25772   0.49255   1.000
    O358    O    0.81902   0.75772   0.49255   1.000
    O359    O    0.81902   0.25772   0.49255   1.000
    O360    O    0.31903   0.75772   0.49255   1.000
    O361    O    0.25001   0.75000   0.50002   1.000
    O362    O    0.18099   0.74227   0.50748   1.000
    O363    O    0.75000   0.75000   0.50002   1.000
    O364    O    0.68098   0.74227   0.50748   1.000
    O365    O    0.75000   0.25000   0.50002   1.000
    O366    O    0.68097   0.24228   0.50749   1.000
    O367    O    0.25001   0.25000   0.50002   1.000
    O368    O    0.18098   0.24227   0.50749   1.000
    O369    O    0.75000   0.50000   0.50000   1.000
    O370    O    0.81129   0.50785   0.50786   1.000
    O371    O    0.25001   0.50000   0.50002   1.000
    O372    O    0.31131   0.50785   0.50788   1.000
    O373    O    0.75000   0.00000   0.50002   1.000
    O374    O    0.81129   0.00785   0.50788   1.000
    O375    O    0.25000   0.00000   0.50002   1.000
    O376    O    0.31130   0.00785   0.50788   1.000
    O377    O    0.66529   0.03794   0.53794   1.000
    O378    O    0.16531   0.53794   0.53794   1.000
    O379    O    0.16530   0.03794   0.53794   1.000
    O380    O    0.66529   0.53794   0.53795   1.000
    O381    O    0.29643   0.21224   0.53847   1.000
    O382    O    0.29643   0.71224   0.53847   1.000
    O383    O    0.79642   0.21225   0.53847   1.000
    O384    O    0.79642   0.71224   0.53847   1.000
    O385    O    0.17071   0.67447   0.57572   1.000
    O386    O    0.67070   0.67447   0.57572   1.000
    O387    O    0.67070   0.17447   0.57573   1.000
    O388    O    0.17071   0.17447   0.57573   1.000
    O389    O    0.25330   0.07592   0.57595   1.000
    O390    O    0.25331   0.57592   0.57595   1.000
    O391    O    0.75329   0.07592   0.57595   1.000
    O392    O    0.75330   0.57592   0.57595   1.000
    O393    O    0.74395   0.15530   0.59549   1.000
    O394    O    0.24396   0.15530   0.59549   1.000
    O395    O    0.60075   0.65494   0.65497   1.000
    O396    O    0.74395   0.59547   0.65533   1.000
    O397    O    0.67070   0.57570   0.67449   1.000
    O398    O    0.65453   0.67470   0.67473   1.000
    O399    O    0.60075   0.15494   0.65494   1.000
    O400    O    0.67070   0.07570   0.67449   1.000
    O401    O    0.65453   0.17470   0.67473   1.000
    O402    O    0.10077   0.65494   0.65496   1.000
    O403    O    0.24396   0.59547   0.65533   1.000
    O404    O    0.17072   0.57570   0.67449   1.000
    O405    O    0.15454   0.67470   0.67473   1.000
    O406    O    0.10076   0.15494   0.65497   1.000
    O407    O    0.17071   0.07570   0.67449   1.000
    O408    O    0.15454   0.17470   0.67473   1.000
    O409    O    0.49155   0.21171   0.71171   1.000
    O410    O    0.99155   0.71171   0.71173   1.000
    O411    O    0.49155   0.71171   0.71174   1.000
    O412    O    0.99155   0.21171   0.71174   1.000
    O413    O    0.29643   0.53845   0.71228   1.000
    O414    O    0.79642   0.53845   0.71228   1.000
    O415    O    0.29642   0.03845   0.71229   1.000
    O416    O    0.79641   0.03845   0.71229   1.000
    O417    O    0.68098   0.50746   0.74229   1.000
    O418    O    0.68099   0.00746   0.74229   1.000
    O419    O    0.18099   0.50746   0.74229   1.000
    O420    O    0.18100   0.00746   0.74229   1.000
    O421    O    0.57648   0.24267   0.74271   1.000
    O422    O    0.57649   0.74267   0.74271   1.000
    O423    O    0.07650   0.74267   0.74270   1.000
    O424    O    0.07650   0.24267   0.74271   1.000
    O425    O    0.00001   0.74999   0.75002   1.000
    O426    O    0.92352   0.75732   0.75734   1.000
    O427    O    0.00001   0.25000   0.75003   1.000
    O428    O    0.92352   0.25732   0.75734   1.000
    O429    O    0.50001   0.74999   0.75003   1.000
    O430    O    0.42353   0.75732   0.75734   1.000
    O431    O    0.50001   0.25000   0.75003   1.000
    O432    O    0.42353   0.25732   0.75734   1.000
    O433    O    0.25001   0.49999   0.75002   1.000
    O434    O    0.31904   0.49252   0.75775   1.000
    O435    O    0.75000   0.49999   0.75003   1.000
    O436    O    0.81903   0.49253   0.75775   1.000
    O437    O    0.25001   0.99999   0.75003   1.000
    O438    O    0.31903   0.99253   0.75776   1.000
    O439    O    0.75000   0.99999   0.75003   1.000
    O440    O    0.81902   0.99253   0.75776   1.000
    O441    O    0.70360   0.96154   0.78777   1.000
    O442    O    0.20361   0.96154   0.78777   1.000
    O443    O    0.20360   0.46154   0.78777   1.000
    O444    O    0.70359   0.46154   0.78778   1.000
    O445    O    0.00847   0.78828   0.78831   1.000
    O446    O    0.00847   0.28828   0.78832   1.000
    O447    O    0.50847   0.28829   0.78832   1.000
    O448    O    0.50847   0.78828   0.78832   1.000
    O449    O    0.34549   0.82529   0.82528   1.000
    O450    O    0.84548   0.32529   0.82528   1.000
    O451    O    0.34549   0.32529   0.82532   1.000
    O452    O    0.84548   0.82529   0.82532   1.000
    O453    O    0.32932   0.92428   0.82552   1.000
    O454    O    0.82931   0.92428   0.82555   1.000
    O455    O    0.32931   0.42429   0.82555   1.000
    O456    O    0.82930   0.42429   0.82552   1.000
    O457    O    0.25607   0.90452   0.84468   1.000
    O458    O    0.75606   0.90452   0.84471   1.000
    O459    O    0.25607   0.40452   0.84472   1.000
    O460    O    0.75606   0.40452   0.84468   1.000
    O461    O    0.89925   0.34505   0.84505   1.000
    O462    O    0.39926   0.34505   0.84508   1.000
    O463    O    0.39927   0.84505   0.84505   1.000
    O464    O    0.89926   0.84505   0.84508   1.000
    O465    O    0.74671   0.42407   0.92406   1.000
    O466    O    0.82930   0.32552   0.92429   1.000
    O467    O    0.24672   0.92407   0.92406   1.000
    O468    O    0.32932   0.82551   0.92429   1.000
    O469    O    0.24672   0.42407   0.92410   1.000
    O470    O    0.32931   0.32552   0.92432   1.000
    O471    O    0.74671   0.92406   0.92410   1.000
    O472    O    0.82931   0.82551   0.92432   1.000
    O473    O    0.20359   0.28775   0.96158   1.000
    O474    O    0.20360   0.78775   0.96158   1.000
    O475    O    0.70358   0.28775   0.96158   1.000
    O476    O    0.70359   0.78774   0.96158   1.000
    O477    O    0.83471   0.96205   0.96211   1.000
    O478    O    0.83471   0.46206   0.96210   1.000
    O479    O    0.33472   0.46206   0.96210   1.000
    O480    O    0.33472   0.96205   0.96211   1.000
    O481    O    0.36933   0.15492   0.09510   1.000
    O482    O    0.36934   0.15491   0.59511   1.000
    O483    O    0.36933   0.65492   0.09510   1.000
    O484    O    0.24395   0.65531   0.09549   1.000
    O485    O    0.36934   0.65491   0.59510   1.000
    O486    O    0.24397   0.65530   0.59549   1.000
    O487    O    0.86932   0.15492   0.09510   1.000
    O488    O    0.86933   0.15492   0.59511   1.000
    O489    O    0.86932   0.65492   0.09510   1.000
    O490    O    0.74394   0.65531   0.09549   1.000
    O491    O    0.86933   0.65491   0.59510   1.000
    O492    O    0.74395   0.65530   0.59549   1.000
    O493    O    0.36932   0.09509   0.15495   1.000
    O494    O    0.24394   0.09548   0.15533   1.000
    O495    O    0.36933   0.09508   0.65495   1.000
    O496    O    0.24395   0.09547   0.65534   1.000
    O497    O    0.36932   0.59508   0.15495   1.000
    O498    O    0.36934   0.59508   0.65494   1.000
    O499    O    0.86931   0.09509   0.15495   1.000
    O500    O    0.74393   0.09548   0.15533   1.000
    O501    O    0.86932   0.09508   0.65495   1.000
    O502    O    0.74394   0.09547   0.65534   1.000
    O503    O    0.86931   0.59508   0.15495   1.000
    O504    O    0.86933   0.59508   0.65494   1.000
    O505    O    0.46407   0.40527   0.40529   1.000
    O506    O    0.33945   0.40488   0.40491   1.000
    O507    O    0.46408   0.40527   0.90530   1.000
    O508    O    0.33946   0.40487   0.90491   1.000
    O509    O    0.46407   0.90527   0.40530   1.000
    O510    O    0.33945   0.90488   0.40491   1.000
    O511    O    0.46408   0.90526   0.90530   1.000
    O512    O    0.33946   0.90487   0.90488   1.000
    O513    O    0.96407   0.40527   0.40529   1.000
    O514    O    0.83944   0.40488   0.40491   1.000
    O515    O    0.96408   0.40527   0.90530   1.000
    O516    O    0.83945   0.40487   0.90488   1.000
    O517    O    0.96407   0.90527   0.40530   1.000
    O518    O    0.83944   0.90488   0.40491   1.000
    O519    O    0.96408   0.90526   0.90530   1.000
    O520    O    0.83946   0.90487   0.90491   1.000
    O521    O    0.52387   0.34545   0.34546   1.000
    O522    O    0.52388   0.34545   0.84547   1.000
    O523    O    0.52387   0.84545   0.34546   1.000
    O524    O    0.52388   0.84544   0.84547   1.000
    O525    O    0.02387   0.34545   0.34546   1.000
    O526    O    0.02388   0.34545   0.84547   1.000
    O527    O    0.02387   0.84545   0.34527   1.000
    O528    O    0.02388   0.84544   0.84547   1.000
    O529    O    0.13067   0.34508   0.40494   1.000
    O530    O    0.13068   0.34508   0.90495   1.000
    O531    O    0.25606   0.34469   0.90456   1.000
    O532    O    0.25605   0.84470   0.40455   1.000
    O533    O    0.13069   0.84508   0.90495   1.000
    O534    O    0.25607   0.84469   0.90452   1.000
    O535    O    0.63066   0.34509   0.40492   1.000
    O536    O    0.63067   0.34508   0.90495   1.000
    O537    O    0.75605   0.34469   0.90452   1.000
    O538    O    0.63067   0.84508   0.40494   1.000
    O539    O    0.75604   0.84470   0.40456   1.000
    O540    O    0.63068   0.84508   0.90495   1.000
    O541    O    0.75606   0.84468   0.90456   1.000
    O542    O    0.13068   0.40492   0.34510   1.000
    O543    O    0.25606   0.40453   0.34471   1.000
    O544    O    0.13069   0.40492   0.84511   1.000
    O545    O    0.13068   0.90492   0.34510   1.000
    O546    O    0.13069   0.90491   0.84510   1.000
    O547    O    0.63067   0.40492   0.34510   1.000
    O548    O    0.75604   0.40453   0.34471   1.000
    O549    O    0.63068   0.40492   0.84511   1.000
    O550    O    0.63067   0.90492   0.34510   1.000
    O551    O    0.63069   0.90491   0.84510   1.000
    O552    O    0.03592   0.09474   0.09474   1.000
    O553    O    0.16055   0.09513   0.09512   1.000
    O554    O    0.03593   0.09473   0.59475   1.000
    O555    O    0.16056   0.09512   0.59513   1.000
    O556    O    0.03592   0.59473   0.09475   1.000
    O557    O    0.16055   0.59513   0.09513   1.000
    O558    O    0.03594   0.59473   0.59474   1.000
    O559    O    0.16056   0.59512   0.59513   1.000
    O560    O    0.53592   0.09474   0.09474   1.000
    O561    O    0.66054   0.09513   0.09512   1.000
    O562    O    0.53593   0.09473   0.59475   1.000
    O563    O    0.66055   0.09512   0.59513   1.000
    O564    O    0.53593   0.59473   0.09475   1.000
    O565    O    0.66054   0.59513   0.09513   1.000
    O566    O    0.53594   0.59473   0.59475   1.000
    O567    O    0.66055   0.59512   0.59514   1.000
    O568    O    0.97612   0.15456   0.15457   1.000
    O569    O    0.97613   0.15455   0.65458   1.000
    O570    O    0.97612   0.65455   0.15457   1.000
    O571    O    0.97614   0.65455   0.65458   1.000
    O572    O    0.47612   0.15456   0.15455   1.000
    O573    O    0.47613   0.15455   0.65455   1.000
    O574    O    0.47612   0.65455   0.15457   1.000
    O575    O    0.47614   0.65455   0.65458   1.000
loop_
    _geom_bond_atom_site_label_1
    _geom_bond_atom_site_label_2
    _geom_bond_distance
    _geom_bond_site_symmetry_2
    _ccdc_geom_bond_type
    C80    O224      0.63397      .   S
    C200   O224      0.63397      .   S
    C80    O225      0.63247  1_544   S
    C195   O225      0.63247      .   S
    C80    O226      0.77292      .   S
    C51    O226      0.77292  1_566   S
    C84    O227      0.63397      .   S
    C204   O227      0.63397      .   S
    C84    O228      0.63246  1_544   S
    C199   O228      0.63246      .   S
    C84    O229      0.77292  1_545   S
    C55    O229      0.77292  1_556   S
    C82    O230      0.63398      .   S
    C202   O230      0.63398      .   S
    C82    O231      0.63253  1_554   S
    C193   O231      0.63253      .   S
    C82    O232      0.77284      .   S
    C49    O232      0.77284  1_556   S
    C86    O233      0.63398      .   S
    C206   O233      0.63398      .   S
    C86    O234      0.63254  1_554   S
    C197   O234      0.63254      .   S
    C86    O235      0.77283      .   S
    C53    O235      0.77283  1_556   S
    C34    O236      0.63423      .   S
    C106   O236      0.63423      .   S
    C34    O237      0.63246  1_554   S
    C99    O237      0.63246      .   S
    C34    O238      0.77233      .   S
    C67    O238      0.77233  1_556   S
    C32    O239      0.63425      .   S
    C104   O239      0.63425      .   S
    C32    O240      0.63246  1_554   S
    C97    O240      0.63246      .   S
    C32    O241      0.77232      .   S
    C65    O241      0.77232  1_556   S
    C38    O242      0.63404      .   S
    C110   O242      0.63404      .   S
    C38    O243      0.63249  1_554   S
    C103   O243      0.63249      .   S
    C38    O244      0.77251      .   S
    C71    O244      0.77251  1_556   S
    C36    O245      0.63400      .   S
    C108   O245      0.63400      .   S
    C36    O246      0.63249  1_554   S
    C101   O246      0.63249      .   S
    C36    O247      0.77256      .   S
    C69    O247      0.77256  1_556   S
    C160   O248      1.18414      .   S
    C24    O248      1.18414      .   S
    C160   O249      0.63249      .   S
    C65    O249      0.63249  1_556   S
    C162   O250      1.18418      .   S
    C26    O250      1.18418      .   S
    C162   O251      0.63250      .   S
    C67    O251      0.63250  1_556   S
    C164   O252      1.18414      .   S
    C28    O252      1.18414      .   S
    C164   O253      0.63250      .   S
    C69    O253      0.63250  1_556   S
    C166   O254      1.18417      .   S
    C30    O254      1.18417      .   S
    C166   O255      0.63250      .   S
    C71    O255      0.63250  1_556   S
    C128   O256      1.18421      .   S
    C24    O256      1.18421      .   S
    C128   O257      0.63245      .   S
    C51    O257      0.63245  1_566   S
    C130   O258      1.18424      .   S
    C26    O258      1.18424      .   S
    C130   O259      0.63253      .   S
    C49    O259      0.63253  1_556   S
    C132   O260      1.18421      .   S
    C28    O260      1.18421      .   S
    C132   O261      0.63246      .   S
    C55    O261      0.63246  1_566   S
    C134   O262      1.18425      .   S
    C30    O262      1.18425      .   S
    C134   O263      0.63253      .   S
    C53    O263      0.63253  1_556   S
    C108   O264      1.19985      .   S
    C28    O264      1.19985      .   S
    C104   O265      1.19986      .   S
    C24    O265      1.19986      .   S
    C24    O266      1.19938      .   S
    C216   O266      1.19938      .   S
    C24    O267      1.18419      .   S
    C176   O267      1.18419      .   S
    C24    O268      1.18415      .   S
    C144   O268      1.18415      .   S
    C28    O269      1.19939      .   S
    C220   O269      1.19939      .   S
    C28    O270      1.18419      .   S
    C180   O270      1.18419      .   S
    C28    O271      1.18414      .   S
    C148   O271      1.18414      .   S
    C26    O272      1.19939      .   S
    C218   O272      1.19939      .   S
    C26    O273      1.19985      .   S
    C122   O273      1.19985      .   S
    C26    O274      1.18417      .   S
    C178   O274      1.18417      .   S
    C26    O275      1.18414      .   S
    C146   O275      1.18414      .   S
    C30    O276      1.19938      .   S
    C222   O276      1.19938      .   S
    C30    O277      1.19984      .   S
    C126   O277      1.19984      .   S
    C30    O278      1.18417      .   S
    C182   O278      1.18417      .   S
    C30    O279      1.18414      .   S
    C150   O279      1.18414      .   S
    C220   O280      0.63436      .   S
    C88    O280      0.63436      .   S
    C216   O281      0.63403  1_455   S
    C92    O281      0.63403      .   S
    C222   O282      0.63405      .   S
    C90    O282      0.63405      .   S
    C218   O283      0.63403  1_455   S
    C94    O283      0.63403      .   S
    C126   O284      0.63398      .   S
    C46    O284      0.63398      .   S
    C124   O285      0.63402      .   S
    C44    O285      0.63402      .   S
    C122   O286      0.63399      .   S
    C42    O286      0.63399      .   S
    C120   O287      0.63401      .   S
    C40    O287      0.63401      .   S
    C180   O288      0.63257      .   S
    C78    O288      0.63257  1_565   S
    C176   O289      0.63257      .   S
    C74    O289      0.63257  1_565   S
    C178   O290      0.63250      .   S
    C72    O290      0.63250      .   S
    C182   O291      0.63250      .   S
    C76    O291      0.63250      .   S
    C148   O292      0.63244      .   S
    C60    O292      0.63244      .   S
    C144   O293      0.63244      .   S
    C56    O293      0.63244      .   S
    C150   O294      0.63243      .   S
    C62    O294      0.63243      .   S
    C146   O295      0.63243      .   S
    C58    O295      0.63243      .   S
    C94    O296      0.77288      .   S
    C58    O296      0.77288  1_455   S
    C94    O297      0.63244      .   S
    C214   O297      0.63244      .   S
    C92    O298      0.77287      .   S
    C56    O298      0.77287  1_455   S
    C92    O299      0.63243      .   S
    C212   O299      0.63243      .   S
    C90    O300      0.77269      .   S
    C62    O300      0.77269      .   S
    C90    O301      0.63238      .   S
    C210   O301      0.63238      .   S
    C88    O302      0.77270      .   S
    C60    O302      0.77270      .   S
    C88    O303      0.63243      .   S
    C208   O303      0.63243      .   S
    C42    O304      0.77269      .   S
    C72    O304      0.77269      .   S
    C42    O305      0.63252      .   S
    C112   O305      0.63252      .   S
    C46    O306      0.77269      .   S
    C76    O306      0.77269      .   S
    C46    O307      0.63251      .   S
    C116   O307      0.63251      .   S
    C44    O308      0.77264      .   S
    C78    O308      0.77264  1_565   S
    C44    O309      0.63259  1_545   S
    C118   O309      0.63259      .   S
    C40    O310      0.77264      .   S
    C74    O310      0.77264  1_565   S
    C40    O311      0.63259  1_545   S
    C114   O311      0.63259      .   S
    C78    O312      0.63404      .   S
    C190   O312      0.63404      .   S
    C74    O313      0.63404      .   S
    C186   O313      0.63404      .   S
    C76    O314      0.63402      .   S
    C188   O314      0.63402      .   S
    C72    O315      0.63402      .   S
    C184   O315      0.63402      .   S
    C56    O316      0.63402      .   S
    C156   O316      0.63402  1_655   S
    C58    O317      0.63160      .   S
    C158   O317      0.63160  1_655   S
    C60    O318      0.63404      .   S
    C152   O318      0.63404      .   S
    C62    O319      0.63405      .   S
    C154   O319      0.63405      .   S
    C210   O320      1.18461      .   S
    C18    O320      1.18461      .   S
    C208   O321      1.18419      .   S
    C16    O321      1.18419      .   S
    C212   O322      1.18420      .   S
    C20    O322      1.18420      .   S
    C214   O323      1.18414      .   S
    C22    O323      1.18414      .   S
    C112   O324      1.18419      .   S
    C16    O324      1.18419      .   S
    C116   O325      1.18418      .   S
    C20    O325      1.18418      .   S
    C118   O326      1.18415      .   S
    C22    O326      1.18415      .   S
    C114   O327      1.18416      .   S
    C18    O327      1.18416      .   S
    C186   O328      1.19983      .   S
    C18    O328      1.19983      .   S
    C190   O329      1.19983      .   S
    C22    O329      1.19983      .   S
    C158   O330      1.19934      .   S
    C22    O330      1.19934      .   S
    C156   O331      1.19939      .   S
    C20    O331      1.19939      .   S
    C152   O332      1.19939      .   S
    C16    O332      1.19939      .   S
    C154   O333      1.19939      .   S
    C18    O333      1.19939      .   S
    C20    O334      1.19986      .   S
    C172   O334      1.19986      .   S
    C20    O335      1.18425      .   S
    C196   O335      1.18425      .   S
    C20    O336      1.18414      .   S
    C100   O336      1.18414      .   S
    C18    O337      1.18426      .   S
    C194   O337      1.18426      .   S
    C18    O338      1.18416      .   S
    C98    O338      1.18416      .   S
    C22    O339      1.18426      .   S
    C198   O339      1.18426      .   S
    C22    O340      1.18416      .   S
    C102   O340      1.18416      .   S
    C16    O341      1.19985      .   S
    C168   O341      1.19985      .   S
    C16    O342      1.18411      .   S
    C192   O342      1.18411      .   S
    C16    O343      1.18413      .   S
    C96    O343      1.18413      .   S
    C10    O344      1.36344      .   S
    C170   O344      1.36344      .   S
    C172   O345      0.63433      .   S
    C68    O345      0.63433      .   S
    C168   O346      0.63407      .   S
    C64    O346      0.63407      .   S
    C170   O347      0.63403      .   S
    C66    O347      0.63403      .   S
    C174   O348      0.63397      .   S
    C70    O348      0.63397      .   S
    C140   O349      0.63376      .   S
    C52    O349      0.63376      .   S
    C136   O350      0.63396      .   S
    C48    O350      0.63396      .   S
    C142   O351      0.63396      .   S
    C54    O351      0.63396      .   S
    C138   O352      0.63396      .   S
    C50    O352      0.63396      .   S
    C192   O353      0.63275      .   S
    C83    O353      0.63275      .   S
    C194   O354      0.63252      .   S
    C81    O354      0.63252  1_545   S
    C198   O355      0.63252      .   S
    C85    O355      0.63252  1_545   S
    C196   O356      0.63253      .   S
    C87    O356      0.63253      .   S
    C96    O357      0.63251      .   S
    C33    O357      0.63251      .   S
    C102   O358      0.63251      .   S
    C39    O358      0.63251      .   S
    C100   O359      0.63251      .   S
    C37    O359      0.63251      .   S
    C98    O360      0.63251      .   S
    C35    O360      0.63251      .   S
    C66    O361      0.77271      .   S
    C35    O361      0.77271      .   S
    C66    O362      0.63250      .   S
    C163   O362      0.63250      .   S
    C70    O363      0.77271      .   S
    C39    O363      0.77271      .   S
    C70    O364      0.63251      .   S
    C167   O364      0.63251      .   S
    C68    O365      0.77265      .   S
    C37    O365      0.77265      .   S
    C68    O366      0.63250      .   S
    C165   O366      0.63250      .   S
    C64    O367      0.77264      .   S
    C33    O367      0.77264      .   S
    C64    O368      0.63251      .   S
    C161   O368      0.63251      .   S
    C52    O369      0.77263      .   S
    C87    O369      0.77263      .   S
    C52    O370      0.63288      .   S
    C135   O370      0.63288      .   S
    C48    O371      0.77272      .   S
    C83    O371      0.77272      .   S
    C48    O372      0.63260      .   S
    C131   O372      0.63260      .   S
    C54    O373      0.77279  1_565   S
    C85    O373      0.77279      .   S
    C54    O374      0.63252  1_565   S
    C133   O374      0.63252      .   S
    C50    O375      0.77279  1_565   S
    C81    O375      0.77279      .   S
    C50    O376      0.63251  1_565   S
    C129   O376      0.63251      .   S
    C85    O377      0.63396      .   S
    C205   O377      0.63396      .   S
    C83    O378      0.63398      .   S
    C203   O378      0.63398      .   S
    C81    O379      0.63396      .   S
    C201   O379      0.63396      .   S
    C87    O380      0.63403      .   S
    C207   O380      0.63403      .   S
    C33    O381      0.63406      .   S
    C105   O381      0.63406      .   S
    C35    O382      0.63401      .   S
    C107   O382      0.63401      .   S
    C37    O383      0.63406      .   S
    C109   O383      0.63406      .   S
    C39    O384      0.63401      .   S
    C111   O384      0.63401      .   S
    C163   O385      1.18419      .   S
    C27    O385      1.18419      .   S
    C167   O386      1.18418      .   S
    C31    O386      1.18418      .   S
    C165   O387      1.18412      .   S
    C29    O387      1.18412      .   S
    C161   O388      1.18413      .   S
    C25    O388      1.18413      .   S
    C129   O389      1.18425      .   S
    C25    O389      1.18425      .   S
    C131   O390      1.18425      .   S
    C27    O390      1.18425      .   S
    C133   O391      1.18425      .   S
    C29    O391      1.18425      .   S
    C135   O392      1.18424      .   S
    C31    O392      1.18424      .   S
    C109   O393      1.19985      .   S
    C29    O393      1.19985      .   S
    C105   O394      1.19986      .   S
    C25    O394      1.19986      .   S
    C31    O395      1.19938      .   S
    C223   O395      1.19938      .   S
    C31    O396      1.19985      .   S
    C127   O396      1.19985      .   S
    C31    O397      1.18412      .   S
    C183   O397      1.18412      .   S
    C31    O398      1.18415      .   S
    C151   O398      1.18415      .   S
    C29    O399      1.19939      .   S
    C221   O399      1.19939      .   S
    C29    O400      1.18418      .   S
    C181   O400      1.18418      .   S
    C29    O401      1.18416      .   S
    C149   O401      1.18416      .   S
    C27    O402      1.19938      .   S
    C219   O402      1.19938      .   S
    C27    O403      1.19985      .   S
    C123   O403      1.19985      .   S
    C27    O404      1.18416      .   S
    C179   O404      1.18416      .   S
    C27    O405      1.18414      .   S
    C147   O405      1.18414      .   S
    C25    O406      1.19938      .   S
    C217   O406      1.19938      .   S
    C25    O407      1.18418      .   S
    C177   O407      1.18418      .   S
    C25    O408      1.18416      .   S
    C145   O408      1.18416      .   S
    C221   O409      0.63443      .   S
    C89    O409      0.63443      .   S
    C219   O410      0.63409  1_455   S
    C95    O410      0.63409      .   S
    C223   O411      0.63404      .   S
    C91    O411      0.63404      .   S
    C217   O412      0.63403  1_455   S
    C93    O412      0.63403      .   S
    C123   O413      0.63402      .   S
    C43    O413      0.63402      .   S
    C127   O414      0.63402      .   S
    C47    O414      0.63402      .   S
    C121   O415      0.63401      .   S
    C41    O415      0.63401      .   S
    C125   O416      0.63402      .   S
    C45    O416      0.63402      .   S
    C183   O417      0.63264      .   S
    C77    O417      0.63264      .   S
    C181   O418      0.63257      .   S
    C79    O418      0.63257  1_565   S
    C179   O419      0.63249      .   S
    C73    O419      0.63249      .   S
    C177   O420      0.63258      .   S
    C75    O420      0.63258  1_565   S
    C149   O421      0.63244      .   S
    C61    O421      0.63244      .   S
    C151   O422      0.63244      .   S
    C63    O422      0.63244      .   S
    C147   O423      0.63243      .   S
    C59    O423      0.63243      .   S
    C145   O424      0.63244      .   S
    C57    O424      0.63244      .   S
    C95    O425      0.77282  1_655   S
    C59    O425      0.77282      .   S
    C95    O426      0.63243      .   S
    C215   O426      0.63243      .   S
    C93    O427      0.77288  1_655   S
    C57    O427      0.77288      .   S
    C93    O428      0.63243      .   S
    C213   O428      0.63243      .   S
    C91    O429      0.77270      .   S
    C63    O429      0.77270      .   S
    C91    O430      0.63243      .   S
    C211   O430      0.63243      .   S
    C89    O431      0.77270      .   S
    C61    O431      0.77270      .   S
    C89    O432      0.63243      .   S
    C209   O432      0.63243      .   S
    C43    O433      0.77271      .   S
    C73    O433      0.77271      .   S
    C43    O434      0.63251      .   S
    C113   O434      0.63251      .   S
    C47    O435      0.77269      .   S
    C77    O435      0.77269      .   S
    C47    O436      0.63251      .   S
    C117   O436      0.63251      .   S
    C41    O437      0.77264  1_545   S
    C75    O437      0.77264      .   S
    C41    O438      0.63252  1_545   S
    C115   O438      0.63252      .   S
    C45    O439      0.77265  1_545   S
    C79    O439      0.77265      .   S
    C45    O440      0.63252  1_545   S
    C119   O440      0.63252      .   S
    C79    O441      0.63401      .   S
    C191   O441      0.63401      .   S
    C75    O442      0.63400      .   S
    C187   O442      0.63400      .   S
    C73    O443      0.63407      .   S
    C185   O443      0.63407      .   S
    C77    O444      0.63401      .   S
    C189   O444      0.63401      .   S
    C59    O445      0.63409      .   S
    C159   O445      0.63409  1_655   S
    C57    O446      0.63403      .   S
    C157   O446      0.63403  1_655   S
    C61    O447      0.63405      .   S
    C153   O447      0.63405      .   S
    C63    O448      0.63404      .   S
    C155   O448      0.63404      .   S
    C211   O449      1.18367      .   S
    C19    O449      1.18367      .   S
    C213   O450      1.18366      .   S
    C21    O450      1.18366      .   S
    C209   O451      1.18412      .   S
    C17    O451      1.18412      .   S
    C215   O452      1.18414      .   S
    C23    O452      1.18414      .   S
    C115   O453      1.18385      .   S
    C19    O453      1.18385      .   S
    C119   O454      1.18417      .   S
    C23    O454      1.18417      .   S
    C113   O455      1.18414      .   S
    C17    O455      1.18414      .   S
    C117   O456      1.18383      .   S
    C21    O456      1.18383      .   S
    C187   O457      1.19935      .   S
    C19    O457      1.19935      .   S
    C191   O458      1.19983      .   S
    C23    O458      1.19983      .   S
    C185   O459      1.19979      .   S
    C17    O459      1.19979      .   S
    C189   O460      1.19931      .   S
    C21    O460      1.19931      .   S
    C157   O461      1.19942      .   S
    C21    O461      1.19942      .   S
    C153   O462      1.19940      .   S
    C17    O462      1.19940      .   S
    C155   O463      1.19940      .   S
    C19    O463      1.19940      .   S
    C159   O464      1.19939      .   S
    C23    O464      1.19939      .   S
    C21    O465      1.18457      .   S
    C197   O465      1.18457      .   S
    C21    O466      1.18468      .   S
    C101   O466      1.18468      .   S
    C19    O467      1.18459      .   S
    C195   O467      1.18459      .   S
    C19    O468      1.18468      .   S
    C99    O468      1.18468      .   S
    C17    O469      1.18425      .   S
    C193   O469      1.18425      .   S
    C17    O470      1.18420      .   S
    C97    O470      1.18420      .   S
    C23    O471      1.18427      .   S
    C199   O471      1.18427      .   S
    C23    O472      1.18416      .   S
    C103   O472      1.18416      .   S
    C169   O473      0.63401      .   S
    C65    O473      0.63401      .   S
    C171   O474      0.63400      .   S
    C67    O474      0.63400      .   S
    C173   O475      0.63401      .   S
    C69    O475      0.63401      .   S
    C175   O476      0.63401      .   S
    C71    O476      0.63401      .   S
    C143   O477      0.63401      .   S
    C55    O477      0.63401      .   S
    C141   O478      0.63398      .   S
    C53    O478      0.63398      .   S
    C137   O479      0.63398      .   S
    C49    O479      0.63398      .   S
    C139   O480      0.63402      .   S
    C51    O480      0.63402      .   S
    C104   O481      1.36346      .   S
    C0     O481      1.36346      .   S
    C105   O482      1.36345      .   S
    C1     O482      1.36345      .   S
    C106   O483      1.36348      .   S
    C2     O483      1.36348      .   S
    C106   O484      1.19986      .   S
    C26    O484      1.19986      .   S
    C107   O485      1.36346      .   S
    C3     O485      1.36346      .   S
    C107   O486      1.19986      .   S
    C27    O486      1.19986      .   S
    C108   O487      1.36345      .   S
    C4     O487      1.36345      .   S
    C109   O488      1.36344      .   S
    C5     O488      1.36344      .   S
    C110   O489      1.36345      .   S
    C6     O489      1.36345      .   S
    C110   O490      1.19987      .   S
    C30    O490      1.19987      .   S
    C111   O491      1.36347      .   S
    C7     O491      1.36347      .   S
    C111   O492      1.19986      .   S
    C31    O492      1.19986      .   S
    C120   O493      1.36351      .   S
    C0     O493      1.36351      .   S
    C120   O494      1.19988      .   S
    C24    O494      1.19988      .   S
    C121   O495      1.36352      .   S
    C1     O495      1.36352      .   S
    C121   O496      1.19989      .   S
    C25    O496      1.19989      .   S
    C122   O497      1.36351      .   S
    C2     O497      1.36351      .   S
    C123   O498      1.36349      .   S
    C3     O498      1.36349      .   S
    C124   O499      1.36351      .   S
    C4     O499      1.36351      .   S
    C124   O500      1.19987      .   S
    C28    O500      1.19987      .   S
    C125   O501      1.36351      .   S
    C5     O501      1.36351      .   S
    C125   O502      1.19989      .   S
    C29    O502      1.19989      .   S
    C126   O503      1.36350      .   S
    C6     O503      1.36350      .   S
    C127   O504      1.36350      .   S
    C7     O504      1.36350      .   S
    C136   O505      1.36438      .   S
    C12    O505      1.36438      .   S
    C136   O506      1.20016      .   S
    C16    O506      1.20016      .   S
    C137   O507      1.36438      .   S
    C13    O507      1.36438      .   S
    C137   O508      1.20020      .   S
    C17    O508      1.20020      .   S
    C138   O509      1.36439      .   S
    C14    O509      1.36439      .   S
    C138   O510      1.20021      .   S
    C18    O510      1.20021      .   S
    C139   O511      1.36440      .   S
    C15    O511      1.36440      .   S
    C139   O512      1.20068      .   S
    C19    O512      1.20068      .   S
    C140   O513      1.36454      .   S
    C8     O513      1.36454  1_455   S
    C140   O514      1.20014      .   S
    C20    O514      1.20014      .   S
    C141   O515      1.36454      .   S
    C9     O515      1.36454  1_455   S
    C141   O516      1.20068      .   S
    C21    O516      1.20068      .   S
    C142   O517      1.36454      .   S
    C10    O517      1.36454  1_455   S
    C142   O518      1.20022      .   S
    C22    O518      1.20022      .   S
    C143   O519      1.36454      .   S
    C11    O519      1.36454  1_455   S
    C143   O520      1.20020      .   S
    C23    O520      1.20020      .   S
    C152   O521      1.36260      .   S
    C12    O521      1.36260      .   S
    C153   O522      1.36258      .   S
    C13    O522      1.36258      .   S
    C154   O523      1.36260      .   S
    C14    O523      1.36260      .   S
    C155   O524      1.36261      .   S
    C15    O524      1.36261      .   S
    C156   O525      1.36274  1_655   S
    C8     O525      1.36274      .   S
    C157   O526      1.36274  1_655   S
    C9     O526      1.36274      .   S
    C158   O527      1.36535  1_655   S
    C10    O527      1.36535      .   S
    C159   O528      1.36275  1_655   S
    C11    O528      1.36275      .   S
    C168   O529      1.36346      .   S
    C8     O529      1.36346      .   S
    C169   O530      1.36346      .   S
    C9     O530      1.36346      .   S
    C169   O531      1.19986      .   S
    C17    O531      1.19986      .   S
    C170   O532      1.19985      .   S
    C18    O532      1.19985      .   S
    C171   O533      1.36344      .   S
    C11    O533      1.36344      .   S
    C171   O534      1.19985      .   S
    C19    O534      1.19985      .   S
    C172   O535      1.36319      .   S
    C12    O535      1.36319      .   S
    C173   O536      1.36348      .   S
    C13    O536      1.36348      .   S
    C173   O537      1.19984      .   S
    C21    O537      1.19984      .   S
    C174   O538      1.36350      .   S
    C14    O538      1.36350      .   S
    C174   O539      1.19985      .   S
    C22    O539      1.19985      .   S
    C175   O540      1.36346      .   S
    C15    O540      1.36346      .   S
    C175   O541      1.19985      .   S
    C23    O541      1.19985      .   S
    C184   O542      1.36350      .   S
    C8     O542      1.36350      .   S
    C184   O543      1.19987      .   S
    C16    O543      1.19987      .   S
    C185   O544      1.36350      .   S
    C9     O544      1.36350      .   S
    C186   O545      1.36353      .   S
    C10    O545      1.36353      .   S
    C187   O546      1.36351      .   S
    C11    O546      1.36351      .   S
    C188   O547      1.36350      .   S
    C12    O547      1.36350      .   S
    C188   O548      1.19987      .   S
    C20    O548      1.19987      .   S
    C189   O549      1.36351      .   S
    C13    O549      1.36351      .   S
    C190   O550      1.36352      .   S
    C14    O550      1.36352      .   S
    C191   O551      1.36352      .   S
    C15    O551      1.36352      .   S
    C200   O552      1.36452      .   S
    C4     O552      1.36452  1_655   S
    C200   O553      1.20019      .   S
    C24    O553      1.20019      .   S
    C201   O554      1.36452      .   S
    C5     O554      1.36452  1_655   S
    C201   O555      1.20021      .   S
    C25    O555      1.20021      .   S
    C202   O556      1.36452      .   S
    C6     O556      1.36452  1_655   S
    C202   O557      1.20020      .   S
    C26    O557      1.20020      .   S
    C203   O558      1.36452      .   S
    C7     O558      1.36452  1_655   S
    C203   O559      1.20021      .   S
    C27    O559      1.20021      .   S
    C204   O560      1.36438      .   S
    C0     O560      1.36438      .   S
    C204   O561      1.20019      .   S
    C28    O561      1.20019      .   S
    C205   O562      1.36437      .   S
    C1     O562      1.36437      .   S
    C205   O563      1.20021      .   S
    C29    O563      1.20021      .   S
    C206   O564      1.36437      .   S
    C2     O564      1.36437      .   S
    C206   O565      1.20019      .   S
    C30    O565      1.20019      .   S
    C207   O566      1.36437      .   S
    C3     O566      1.36437      .   S
    C207   O567      1.20015      .   S
    C31    O567      1.20015      .   S
    C216   O568      1.36279  1_455   S
    C4     O568      1.36279      .   S
    C217   O569      1.36278  1_455   S
    C5     O569      1.36278      .   S
    C218   O570      1.36276  1_455   S
    C6     O570      1.36276      .   S
    C219   O571      1.36277  1_455   S
    C7     O571      1.36277      .   S
    C220   O572      1.36230      .   S
    C0     O572      1.36230      .   S
    C221   O573      1.36224      .   S
    C1     O573      1.36224      .   S
    C222   O574      1.36263      .   S
    C2     O574      1.36263      .   S
    C223   O575      1.36268      .   S
    C3     O575      1.36268      .   S
