# CIF file generated by openbabel 2.4.90, see http://openbabel.sf.net
data_I
_chemical_name_common ''
_cell_length_a 7.721
_cell_length_b 10.168
_cell_length_c 13.463
_cell_angle_alpha 68.148
_cell_angle_beta 84.677
_cell_angle_gamma 76.446
_space_group_name_H-M_alt 'P 1'
_space_group_name_Hall 'P 1'
loop_
    _symmetry_equiv_pos_as_xyz
    x,y,z
loop_
    _atom_site_label
    _atom_site_type_symbol
    _atom_site_fract_x
    _atom_site_fract_y
    _atom_site_fract_z
    _atom_site_occupancy
    H0      H    0.27953   0.75619   0.32691   1.000
    H1      H    0.34551   0.63239   0.05204   1.000
    H2      H    0.40093   0.26671   0.52633   1.000
    H3      H    0.31323   0.30971   0.36462   1.000
    H4      H    0.06732   0.65247   0.65639   1.000
    H5      H    0.11210   0.70783   0.46211   1.000
    H6      H    0.34281   0.21068   0.72008   1.000
    H7      H    0.72038   0.24371   0.67316   1.000
    H8      H    0.65439   0.36754   0.94802   1.000
    H9      H    0.59902   0.73318   0.47373   1.000
    H10     H    0.68674   0.69019   0.63544   1.000
    H11     H    0.93264   0.34742   0.34367   1.000
    H12     H    0.88783   0.29205   0.53795   1.000
    H13     H    0.65716   0.78921   0.27998   1.000
    C14     C    0.32193   0.86188   0.11576   1.000
    C15     C    0.31333   0.70911   0.18371   1.000
    C16     C    0.29187   0.67113   0.29449   1.000
    C17     C    0.33056   0.45982   0.20458   1.000
    C18     C    0.34471   0.34614   0.15758   1.000
    C19     C    0.33044   0.60344   0.13825   1.000
    C20     C    0.32449   0.35167   0.55371   1.000
    C21     C    0.31387   0.42234   0.31569   1.000
    C22     C    0.13965   0.56860   0.62694   1.000
    C23     C    0.20199   0.42826   0.70082   1.000
    C24     C    0.29054   0.52792   0.36240   1.000
    C25     C    0.16764   0.59942   0.51802   1.000
    C26     C    0.26184   0.49204   0.47896   1.000
    C27     C    0.29399   0.31973   0.66294   1.000
    C28     C    0.17009   0.39658   0.81788   1.000
    C29     C    0.67804   0.13803   0.88433   1.000
    C30     C    0.68654   0.29081   0.81635   1.000
    C31     C    0.70807   0.32877   0.70557   1.000
    C32     C    0.66933   0.54010   0.79547   1.000
    C33     C    0.65529   0.65379   0.84245   1.000
    C34     C    0.66952   0.39648   0.86181   1.000
    C35     C    0.67547   0.64822   0.44635   1.000
    C36     C    0.68611   0.57756   0.68436   1.000
    C37     C    0.86030   0.43129   0.37312   1.000
    C38     C    0.79799   0.57163   0.29924   1.000
    C39     C    0.70934   0.47198   0.63766   1.000
    C40     C    0.83231   0.40047   0.48204   1.000
    C41     C    0.73810   0.50784   0.52110   1.000
    C42     C    0.70597   0.68016   0.33712   1.000
    C43     C    0.82989   0.60331   0.18218   1.000
    O44     O    0.28034   0.95696   0.15973   1.000
    O45     O    0.36918   0.89412   0.01735   1.000
    O46     O    0.28887   0.38896   0.05856   1.000
    O47     O    0.40819   0.21510   0.20840   1.000
    O48     O    0.08807   0.50662   0.84227   1.000
    O49     O    0.22157   0.26781   0.88302   1.000
    O50     O    0.71962   0.04294   0.84036   1.000
    O51     O    0.63078   0.10579   0.98272   1.000
    O52     O    0.71111   0.61097   0.94148   1.000
    O53     O    0.59183   0.78482   0.79162   1.000
    O54     O    0.91192   0.49328   0.15778   1.000
    O55     O    0.77845   0.73209   0.11704   1.000
loop_
    _geom_bond_atom_site_label_1
    _geom_bond_atom_site_label_2
    _geom_bond_distance
    _geom_bond_site_symmetry_2
    _ccdc_geom_bond_type
    O45    C14       1.28010      .   S
    H1     C19       1.08810      .   S
    O46    C18       1.31880      .   S
    C14    O44       1.27811      .   S
    C14    C15       1.49445      .   S
    O55    C43       1.26785      .   S
    C19    C15       1.39812      .   S
    C19    C17       1.39950      .   S
    C18    C17       1.49031      .   S
    C18    O47       1.24945      .   S
    O54    C43       1.28981      .   S
    C43    C38       1.49515      .   S
    C15    C16       1.39868      .   S
    C17    C21       1.40084      .   S
    H13    C42       1.08913      .   S
    C16    H0        1.08728      .   S
    C16    C24       1.40376      .   S
    C38    C42       1.40245      .   S
    C38    C37       1.40270      .   S
    C21    C24       1.40406      .   S
    C21    H3        1.08898      .   S
    C42    C35       1.39261      .   S
    H11    C37       1.08805      .   S
    C24    C26       1.48056      .   S
    C37    C40       1.38778      .   S
    C35    H9        1.09005      .   S
    C35    C41       1.40761      .   S
    H5     C25       1.08917      .   S
    C26    C25       1.40773      .   S
    C26    C20       1.40760      .   S
    C40    C41       1.40772      .   S
    C40    H12       1.08919      .   S
    C25    C22       1.38775      .   S
    C41    C39       1.48057      .   S
    H2     C20       1.09006      .   S
    C20    C27       1.39261      .   S
    C22    H4        1.08806      .   S
    C22    C23       1.40271      .   S
    H10    C36       1.08898      .   S
    C39    C36       1.40403      .   S
    C39    C31       1.40377      .   S
    C27    C23       1.40245      .   S
    C27    H6        1.08912      .   S
    H7     C31       1.08728      .   S
    C36    C32       1.40084      .   S
    C23    C28       1.49513      .   S
    C31    C30       1.39870      .   S
    O53    C33       1.24942      .   S
    C32    C33       1.49034      .   S
    C32    C34       1.39950      .   S
    C30    C34       1.39814      .   S
    C30    C29       1.49447      .   S
    C28    O48       1.28983      .   S
    C28    O49       1.26783      .   S
    O50    C29       1.27811      .   S
    C33    O52       1.31882      .   S
    C34    H8        1.08810      .   S
    C29    O51       1.28009      .   S
