# CIF file generated by openbabel 2.4.90, see http://openbabel.sf.net
data_I
_chemical_name_common ''
_cell_length_a 7.721
_cell_length_b 10.168
_cell_length_c 13.463
_cell_angle_alpha 68.148
_cell_angle_beta 84.677
_cell_angle_gamma 76.446
_space_group_name_H-M_alt 'P 1'
_space_group_name_Hall 'P 1'
loop_
    _symmetry_equiv_pos_as_xyz
    x,y,z
loop_
    _atom_site_label
    _atom_site_type_symbol
    _atom_site_fract_x
    _atom_site_fract_y
    _atom_site_fract_z
    _atom_site_occupancy
    N0      N    0.72801   0.48120   0.59258   1.000
    N1      N    0.27195   0.51870   0.40748   1.000
    Zr2     Zr   0.35457   0.15924   0.04682   1.000
    O3      O    0.48245   0.23305   0.92525   1.000
    Zr4     Zr   0.64542   0.84064   0.95326   1.000
    O5      O    0.51752   0.76684   0.07483   1.000
    Zr6     Zr   0.99998   0.49997   0.00004   1.000
    O7      O    0.90843   0.50179   0.90437   1.000
    O8      O    0.09153   0.49813   0.09570   1.000
    O9      O    0.67292   0.74479   0.85926   1.000
    O10     O    0.32706   0.25510   0.14081   1.000
loop_
    _geom_bond_atom_site_label_1
    _geom_bond_atom_site_label_2
    _geom_bond_distance
    _geom_bond_site_symmetry_2
    _ccdc_geom_bond_type
    Zr2    O3        1.83035  1_554   S
    N0     O3        4.71958      .   S
    Zr4    O5        1.83032  1_556   S
    N1     O5        4.71945      .   S
    N0     O7        4.63476      .   S
    Zr6    O7        1.51781  1_554   S
    Zr6    O8        1.51771  1_655   S
    N1     O8        4.63457      .   S
    Zr4    O9        1.83518      .   S
    N0     O9        5.15761      .   S
    N1     O10       5.15753      .   S
    Zr2    O10       1.83514      .   S
