# CIF file generated by openbabel 2.4.90, see http://openbabel.sf.net
data_I
_chemical_name_common ''
_cell_length_a 7.721
_cell_length_b 10.168
_cell_length_c 13.463
_cell_angle_alpha 68.148
_cell_angle_beta 84.677
_cell_angle_gamma 76.446
_space_group_name_H-M_alt 'P 1'
_space_group_name_Hall 'P 1'
loop_
    _symmetry_equiv_pos_as_xyz
    x,y,z
loop_
    _atom_site_label
    _atom_site_type_symbol
    _atom_site_fract_x
    _atom_site_fract_y
    _atom_site_fract_z
    _atom_site_occupancy
    N0      N    0.72801   0.48120   0.59258   1.000
    N1      N    0.27195   0.51870   0.40748   1.000
    Zr2     Zr   0.35457   0.15924   0.04682   1.000
    O3      O    0.48245   0.23305   0.92525   1.000
    O4      O    0.32570   0.27782   0.13845   1.000
    O5      O    0.31729   0.26268   0.11651   1.000
    O6      O    0.32463   0.22382   0.15110   1.000
    O7      O    0.34061   0.25609   0.15718   1.000
    Zr8     Zr   0.64542   0.84064   0.95326   1.000
    O9      O    0.67534   0.77607   0.84898   1.000
    O10     O    0.51752   0.76684   0.07483   1.000
    O11     O    0.65937   0.74380   0.84289   1.000
    O12     O    0.68269   0.73721   0.88356   1.000
    O13     O    0.67428   0.72207   0.86162   1.000
    Zr14    Zr   0.99998   0.49997   0.00004   1.000
    O15     O    0.92098   0.49444   0.91789   1.000
    O16     O    0.10408   0.49077   0.10921   1.000
    O17     O    0.07898   0.50548   0.08218   1.000
    O18     O    0.89588   0.50915   0.89085   1.000
loop_
    _geom_bond_atom_site_label_1
    _geom_bond_atom_site_label_2
    _geom_bond_distance
    _geom_bond_site_symmetry_2
    _ccdc_geom_bond_type
    Zr2    O3        1.83035  1_554   S
    N0     O3        4.71958      .   S
    Zr2    O4        1.98889      .   S
    N1     O4        5.01383      .   S
    Zr2    O5        1.61614      .   S
    N1     O5        5.39958      .   S
    Zr2    O6        1.73509      .   S
    N1     O6        5.28603      .   S
    Zr2    O7        2.04911      .   S
    N1     O7        4.94675      .   S
    Zr8    O9        1.73511      .   S
    N0     O9        5.28613      .   S
    Zr8    O10       1.83032  1_556   S
    N1     O10       4.71945      .   S
    Zr8    O11       2.04919      .   S
    N0     O11       4.94679      .   S
    Zr8    O12       1.61617      .   S
    N0     O12       5.39967      .   S
    Zr8    O13       1.98893      .   S
    N0     O13       5.01391      .   S
    Zr14   O15       1.33635  1_554   S
    N0     O15       4.81283      .   S
    Zr14   O16       1.70206  1_655   S
    N1     O16       4.45789      .   S
    Zr14   O17       1.33625  1_655   S
    N1     O17       4.81264      .   S
    Zr14   O18       1.70216  1_554   S
    N0     O18       4.45807      .   S
