# CIF file generated by openbabel 2.4.90, see http://openbabel.sf.net
data_I
_chemical_name_common ''
_cell_length_a 10.118
_cell_length_b 11.5955
_cell_length_c 14.799
_cell_angle_alpha 91.129
_cell_angle_beta 90.007
_cell_angle_gamma 90.057
_space_group_name_H-M_alt 'P 1'
_space_group_name_Hall 'P 1'
loop_
    _symmetry_equiv_pos_as_xyz
    x,y,z
loop_
    _atom_site_label
    _atom_site_type_symbol
    _atom_site_fract_x
    _atom_site_fract_y
    _atom_site_fract_z
    _atom_site_occupancy
    H0      H    0.24247   0.85596   0.37243   1.000
    H1      H    0.94948   0.47546   0.27153   1.000
    H2      H    0.38992   0.56281   0.04326   1.000
    H3      H    0.79533   0.98134   0.23428   1.000
    H4      H    0.83762   0.69085   0.91938   1.000
    H5      H    0.29112   0.00331   0.00000   1.000
    H6      H    0.74222   0.64402   0.12760   1.000
    H7      H    0.44989   0.02454   0.22847   1.000
    H8      H    0.89000   0.93757   0.45684   1.000
    H9      H    0.29509   0.51848   0.26575   1.000
    H10     H    0.33738   0.80891   0.58040   1.000
    H11     H    0.79089   0.49700   0.48789   1.000
    H12     H    0.75753   0.14402   0.62753   1.000
    H13     H    0.05051   0.52452   0.72843   1.000
    H14     H    0.61008   0.43717   0.95671   1.000
    H15     H    0.20468   0.01865   0.76569   1.000
    H16     H    0.16237   0.30914   0.08059   1.000
    H17     H    0.70888   0.99668   0.98767   1.000
    H18     H    0.25778   0.35597   0.87236   1.000
    H19     H    0.55012   0.97545   0.77150   1.000
    H20     H    0.11000   0.06242   0.54313   1.000
    H21     H    0.70492   0.48150   0.73422   1.000
    H22     H    0.66262   0.19108   0.41957   1.000
    H23     H    0.20911   0.50298   0.51208   1.000
    C24     C    0.16079   0.82382   0.32941   1.000
    C25     C    0.97585   0.51986   0.20860   1.000
    C26     C    0.28240   0.57738   0.05032   1.000
    C27     C    0.86673   0.95211   0.18198   1.000
    C28     C    0.89824   0.74363   0.96634   1.000
    C29     C    0.27330   0.93026   0.05730   1.000
    C30     C    0.66064   0.67619   0.17063   1.000
    C31     C    0.47609   0.98014   0.29142   1.000
    C32     C    0.78249   0.92277   0.44975   1.000
    C33     C    0.36658   0.54779   0.31802   1.000
    C34     C    0.39814   0.75621   0.53356   1.000
    C35     C    0.77318   0.56991   0.44279   1.000
    C36     C    0.83921   0.17617   0.67056   1.000
    C37     C    0.02415   0.48013   0.79137   1.000
    C38     C    0.71760   0.42261   0.94965   1.000
    C39     C    0.13327   0.04788   0.81799   1.000
    C40     C    0.10176   0.25635   0.03363   1.000
    C41     C    0.72670   0.06973   0.94267   1.000
    C42     C    0.33936   0.32380   0.82934   1.000
    C43     C    0.52391   0.01985   0.70855   1.000
    C44     C    0.21751   0.07721   0.55022   1.000
    C45     C    0.63342   0.45219   0.68195   1.000
    C46     C    0.60186   0.24377   0.46641   1.000
    C47     C    0.22682   0.43008   0.55718   1.000
    O48     O    0.18920   0.80026   0.24654   1.000
    O49     O    0.04912   0.81466   0.36614   1.000
    O50     O    0.97889   0.63074   0.21418   1.000
    O51     O    0.00022   0.45986   0.13946   1.000
    O52     O    0.24867   0.65304   0.11098   1.000
    O53     O    0.20639   0.51969   0.00000   1.000
    O54     O    0.91235   0.84968   0.19155   1.000
    O55     O    0.89382   0.02078   0.12046   1.000
    O56     O    0.97258   0.68551   0.02010   1.000
    O57     O    0.88830   0.85078   0.96389   1.000
    O58     O    0.15214   0.89655   0.06278   1.000
    O59     O    0.37117   0.88934   0.09762   1.000
    O60     O    0.68914   0.69975   0.25349   1.000
    O61     O    0.54897   0.68538   0.13391   1.000
    O62     O    0.47914   0.86926   0.28580   1.000
    O63     O    0.50028   0.04016   0.36061   1.000
    O64     O    0.74883   0.84696   0.38913   1.000
    O65     O    0.70643   0.98038   0.49986   1.000
    O66     O    0.41221   0.65030   0.30845   1.000
    O67     O    0.39374   0.47915   0.37950   1.000
    O68     O    0.47253   0.81444   0.47985   1.000
    O69     O    0.38833   0.64905   0.53610   1.000
    O70     O    0.65208   0.60357   0.43726   1.000
    O71     O    0.87110   0.61073   0.40238   1.000
    O72     O    0.81080   0.19973   0.75342   1.000
    O73     O    0.95088   0.18533   0.63383   1.000
    O74     O    0.02111   0.36925   0.78578   1.000
    O75     O    0.99978   0.54013   0.86051   1.000
    O76     O    0.75133   0.34696   0.88898   1.000
    O77     O    0.79361   0.48030   0.99988   1.000
    O78     O    0.08765   0.15030   0.80842   1.000
    O79     O    0.10618   0.97921   0.87951   1.000
    O80     O    0.02742   0.31448   0.97987   1.000
    O81     O    0.11169   0.14921   0.03608   1.000
    O82     O    0.84786   0.10344   0.93719   1.000
    O83     O    0.62883   0.11065   0.90235   1.000
    O84     O    0.31086   0.30023   0.74648   1.000
    O85     O    0.45103   0.31461   0.86606   1.000
    O86     O    0.52087   0.13072   0.71417   1.000
    O87     O    0.49972   0.95983   0.63936   1.000
    O88     O    0.25117   0.15302   0.61085   1.000
    O89     O    0.29357   0.01961   0.50011   1.000
    O90     O    0.58779   0.34969   0.69152   1.000
    O91     O    0.60626   0.52083   0.62046   1.000
    O92     O    0.52747   0.18554   0.52012   1.000
    O93     O    0.61167   0.35094   0.46387   1.000
    O94     O    0.34792   0.39641   0.56271   1.000
    O95     O    0.12890   0.38926   0.59758   1.000
loop_
    _geom_bond_atom_site_label_1
    _geom_bond_atom_site_label_2
    _geom_bond_distance
    _geom_bond_site_symmetry_2
    _ccdc_geom_bond_type
    O53    C26       1.25409      .   S
    H5     C29       1.22355  1_545   S
    O56    C28       1.29424  1_554   S
    C40    O81       1.24778      .   S
    C40    H16       1.10277      .   S
    C40    O80       1.29425  1_554   S
    H2     C26       1.10570      .   S
    C26    O52       1.28909      .   S
    C29    O58       1.28935      .   S
    C29    O59       1.25448      .   S
    O55    C27       1.25147  1_545   S
    H6     C30       1.10331      .   S
    O61    C30       1.25914      .   S
    O51    C25       1.25056  1_455   S
    C30    O60       1.28380      .   S
    C27    O54       1.28509      .   S
    C27    H3        1.10734      .   S
    C25    O50       1.28710      .   S
    C25    H1        1.10559      .   S
    H7     C31       1.10565  1_545   S
    O48    C24       1.28382      .   S
    H9     C33       1.10735      .   S
    O62    C31       1.28707      .   S
    C31    O63       1.25069  1_565   S
    O66    C33       1.28509      .   S
    C33    O67       1.25132      .   S
    C24    O49       1.25913      .   S
    C24    H0        1.10334      .   S
    O64    C32       1.28910      .   S
    O71    C35       1.25441      .   S
    H22    C46       1.10277      .   S
    O70    C35       1.28937      .   S
    C35    H11       1.10214      .   S
    C32    H8        1.10574      .   S
    C32    O65       1.25306      .   S
    O93    C46       1.24776      .   S
    C46    O92       1.29400      .   S
    O68    C34       1.29398      .   S
    O89    C44       1.25305      .   S
    H23    C47       1.10213      .   S
    C34    O69       1.24779      .   S
    C34    H10       1.10276      .   S
    H20    C44       1.10574      .   S
    C44    O88       1.28911      .   S
    C47    O94       1.28938      .   S
    C47    O95       1.25442      .   S
    O91    C45       1.25131      .   S
    H12    C36       1.10331      .   S
    O73    C36       1.25915      .   S
    O87    C43       1.25069  1_565   S
    C36    O72       1.28383      .   S
    C45    O90       1.28511      .   S
    C45    H21       1.10735      .   S
    C43    O86       1.28704      .   S
    C43    H19       1.10565  1_545   S
    H13    C37       1.10560      .   S
    O84    C42       1.28378      .   S
    H15    C39       1.10735      .   S
    O74    C37       1.28710      .   S
    C37    O75       1.25057  1_455   S
    O78    C39       1.28508      .   S
    C39    O79       1.25147  1_545   S
    C42    O85       1.25914      .   S
    C42    H18       1.10333      .   S
    O76    C38       1.28908      .   S
    O83    C41       1.25447      .   S
    H4     C28       1.10279      .   S
    O82    C41       1.28937      .   S
    C41    H17       1.10249  1_545   S
    C38    H14       1.10569      .   S
    C38    O77       1.25331      .   S
    O57    C28       1.24781      .   S
