# CIF file generated by openbabel 2.4.90, see http://openbabel.sf.net
data_I
_chemical_name_common ''
_cell_length_a 10.118
_cell_length_b 11.5955
_cell_length_c 14.799
_cell_angle_alpha 91.129
_cell_angle_beta 90.007
_cell_angle_gamma 90.057
_space_group_name_H-M_alt 'P 1'
_space_group_name_Hall 'P 1'
loop_
    _symmetry_equiv_pos_as_xyz
    x,y,z
loop_
    _atom_site_label
    _atom_site_type_symbol
    _atom_site_fract_x
    _atom_site_fract_y
    _atom_site_fract_z
    _atom_site_occupancy
    Zr0     Zr   0.07197   0.75490   0.12964   1.000
    Zr1     Zr   0.88267   0.74055   0.30904   1.000
    Zr2     Zr   0.57199   0.74511   0.37038   1.000
    Zr3     Zr   0.38265   0.75947   0.19096   1.000
    Zr4     Zr   0.92803   0.24509   0.87033   1.000
    Zr5     Zr   0.11733   0.25944   0.69093   1.000
    Zr6     Zr   0.42801   0.25487   0.62959   1.000
    Zr7     Zr   0.61735   0.24052   0.80901   1.000
    Zr8     Zr   1.00000   0.49999   1.00000   1.000
    Zr9     Zr   0.50000   0.00000   0.49999   1.000
    Zr10    Zr   0.00000   0.00000   0.00000   1.000
    Zr11    Zr   0.50000   0.49999   0.49999   1.000
    N12     N    0.33976   0.32365   0.82856   1.000
    O13     O    0.35460   0.30060   0.75830   1.000
    O14     O    0.27693   0.30174   0.77363   1.000
    O15     O    0.43697   0.30061   0.83305   1.000
    N16     N    0.02389   0.47851   0.79152   1.000
    O17     O    0.01189   0.49928   0.86089   1.000
    O18     O    0.99923   0.39284   0.80979   1.000
    O19     O    0.04655   0.39642   0.76494   1.000
    N20     N    0.39909   0.75715   0.53248   1.000
    O21     O    0.42163   0.66584   0.52526   1.000
    O22     O    0.44268   0.83219   0.51120   1.000
    O23     O    0.46068   0.76847   0.47880   1.000
    N24     N    0.72807   0.07013   0.94247   1.000
    O25     O    0.80801   0.12220   0.92312   1.000
    O26     O    0.82600   0.06092   0.95553   1.000
    O27     O    0.67558   0.12285   0.89908   1.000
    N28     N    0.66024   0.67634   0.17141   1.000
    O29     O    0.64540   0.69938   0.24167   1.000
    O30     O    0.72307   0.69824   0.22634   1.000
    O31     O    0.56303   0.69938   0.16692   1.000
    N32     N    0.28185   0.57823   0.05114   1.000
    O33     O    0.19252   0.54404   0.02557   1.000
    O34     O    0.29875   0.64224   0.10106   1.000
    O35     O    0.22108   0.64110   0.08573   1.000
    N36     N    0.36690   0.54893   0.31793   1.000
    O37     O    0.40689   0.51925   0.37884   1.000
    O38     O    0.38217   0.62691   0.28382   1.000
    O39     O    0.42950   0.62332   0.32867   1.000
    N40     N    0.13295   0.04901   0.81790   1.000
    O41     O    0.11772   0.12694   0.78379   1.000
    O42     O    0.07039   0.12335   0.82864   1.000
    O43     O    0.09302   0.01931   0.87883   1.000
    N44     N    0.63310   0.45105   0.68204   1.000
    O45     O    0.57050   0.37667   0.67129   1.000
    O46     O    0.61783   0.37308   0.71615   1.000
    O47     O    0.59311   0.48073   0.62113   1.000
    N48     N    0.86706   0.95098   0.18207   1.000
    O49     O    0.90698   0.98068   0.12115   1.000
    O50     O    0.88228   0.87305   0.21618   1.000
    O51     O    0.92961   0.87664   0.17133   1.000
    N52     N    0.52366   0.02146   0.70840   1.000
    O53     O    0.54638   0.10354   0.73499   1.000
    O54     O    0.49905   0.10713   0.69014   1.000
    O55     O    0.51176   0.00069   0.63903   1.000
    N56     N    0.21806   0.07806   0.55108   1.000
    O57     O    0.30742   0.04394   0.52556   1.000
    O58     O    0.27883   0.14100   0.58565   1.000
    O59     O    0.20116   0.14215   0.60098   1.000
    N60     N    0.71815   0.42176   0.94880   1.000
    O61     O    0.70125   0.35775   0.89890   1.000
    O62     O    0.77892   0.35889   0.91423   1.000
    O63     O    0.80748   0.45595   0.97437   1.000
    N64     N    0.16039   0.82367   0.32863   1.000
    O65     O    0.06314   0.80064   0.33311   1.000
    O66     O    0.22316   0.80177   0.27369   1.000
    O67     O    0.14549   0.80063   0.25836   1.000
    N68     N    0.77181   0.57030   0.44258   1.000
    O69     O    0.82435   0.62297   0.39915   1.000
    O70     O    0.67393   0.56104   0.45560   1.000
    O71     O    0.69192   0.62232   0.42320   1.000
    N72     N    0.60091   0.24283   0.46749   1.000
    O73     O    0.57837   0.33415   0.47471   1.000
    O74     O    0.53932   0.23152   0.52117   1.000
    O75     O    0.55732   0.16780   0.48877   1.000
    N76     N    0.83961   0.17631   0.67134   1.000
    O77     O    0.77684   0.19822   0.72628   1.000
    O78     O    0.85451   0.19936   0.74161   1.000
    O79     O    0.93686   0.19935   0.66686   1.000
    N80     N    0.22819   0.42968   0.55739   1.000
    O81     O    0.30808   0.37766   0.57677   1.000
    O82     O    0.32607   0.43894   0.54437   1.000
    O83     O    0.17565   0.37701   0.60082   1.000
    N84     N    0.47635   0.97853   0.29157   1.000
    O85     O    0.48824   0.99930   0.36093   1.000
    O86     O    0.50095   0.89286   0.30983   1.000
    O87     O    0.45362   0.89645   0.26498   1.000
    N88     N    0.10081   0.25730   0.03254   1.000
    O89     O    0.03926   0.26854   0.97882   1.000
    O90     O    0.05726   0.33227   0.01124   1.000
    O91     O    0.07833   0.16595   0.02529   1.000
    N92     N    0.89919   0.74269   0.96743   1.000
    O93     O    0.92167   0.83404   0.97469   1.000
    O94     O    0.94274   0.66772   0.98874   1.000
    O95     O    0.96073   0.73145   0.02115   1.000
    N96     N    0.78194   0.92192   0.44890   1.000
    O97     O    0.79884   0.85784   0.39899   1.000
    O98     O    0.72117   0.85898   0.41433   1.000
    O99     O    0.69258   0.95605   0.47441   1.000
    N100    N    0.97611   0.52148   0.20844   1.000
    O101    O    0.00077   0.60715   0.19018   1.000
    O102    O    0.95344   0.60356   0.23503   1.000
    O103    O    0.98811   0.50070   0.13909   1.000
    N104    N    0.27193   0.92987   0.05442   1.000
    O105    O    0.17400   0.93907   0.04291   1.000
    O106    O    0.19199   0.87780   0.07532   1.000
    O107    O    0.32442   0.87714   0.09936   1.000
loop_
    _geom_bond_atom_site_label_1
    _geom_bond_atom_site_label_2
    _geom_bond_distance
    _geom_bond_site_symmetry_2
    _ccdc_geom_bond_type
    N12    O13       1.07907      .   S
    Zr6    O13       2.10296      .   S
    N12    O14       1.05871      .   S
    Zr5    O14       2.07858      .   S
    N12    O15       1.02200      .   S
    Zr7    O15       1.98385      .   S
    N16    O17       1.05682      .   S
    Zr8    O17       2.06208  1_655   S
    N16    O18       1.06407  1_455   S
    Zr4    O18       2.07727      .   S
    N16    O19       1.04832      .   S
    Zr5    O19       2.04195      .   S
    N20    O21       1.08655      .   S
    Zr11   O21       2.10750      .   S
    N20    O22       1.02992      .   S
    Zr9    O22       2.03983  1_545   S
    N20    O23       1.02010      .   S
    Zr2    O23       1.97481      .   S
    N24    O25       1.05198      .   S
    Zr4    O25       2.03868      .   S
    N24    O26       1.01565      .   S
    Zr10   O26       2.01298  1_454   S
    N24    O27       1.04135      .   S
    Zr7    O27       2.01459      .   S
    N28    O29       1.07908      .   S
    Zr2    O29       2.10296      .   S
    N28    O30       1.05871      .   S
    Zr1    O30       2.07858      .   S
    N28    O31       1.02200      .   S
    Zr3    O31       1.98384      .   S
    N32    O33       1.05383      .   S
    Zr8    O33       2.04665  1_656   S
    N32    O34       1.05071      .   S
    Zr3    O34       2.06510      .   S
    N32    O35       1.07593      .   S
    Zr0    O35       2.10004      .   S
    N36    O37       1.05212      .   S
    Zr11   O37       2.04147      .   S
    N36    O38       1.05542      .   S
    Zr3    O38       2.08189      .   S
    N36    O39       1.07884      .   S
    Zr2    O39       2.10127      .   S
    N40    O41       1.05520      .   S
    Zr5    O41       2.08139      .   S
    N40    O42       1.07920      .   S
    Zr4    O42       2.10193  1_655   S
    N40    O43       1.05206      .   S
    Zr10   O43       2.04140  1_554   S
    N44    O45       1.07884      .   S
    Zr6    O45       2.10126      .   S
    N44    O46       1.05542      .   S
    Zr7    O46       2.08189      .   S
    N44    O47       1.05212      .   S
    Zr11   O47       2.04146      .   S
    N48    O49       1.05198      .   S
    Zr10   O49       2.04111  1_445   S
    N48    O50       1.05521      .   S
    Zr1    O50       2.08141      .   S
    N48    O51       1.07919      .   S
    Zr0    O51       2.10193  1_455   S
    N52    O53       1.04805      .   S
    Zr7    O53       2.04137      .   S
    N52    O54       1.06435      .   S
    Zr6    O54       2.07780      .   S
    N52    O55       1.05656      .   S
    Zr9    O55       2.06107      .   S
    N56    O57       1.05434      .   S
    Zr9    O57       2.04795      .   S
    N56    O58       1.07551      .   S
    Zr6    O58       2.09920      .   S
    N56    O59       1.05143      .   S
    Zr5    O59       2.06691      .   S
    N60    O61       1.05059      .   S
    Zr7    O61       2.06500      .   S
    N60    O62       1.07585      .   S
    Zr4    O62       2.09999      .   S
    N60    O63       1.05379      .   S
    Zr8    O63       2.04674      .   S
    N64    O65       1.02183      .   S
    Zr1    O65       1.98356  1_655   S
    N64    O66       1.05886      .   S
    Zr3    O66       2.07900      .   S
    N64    O67       1.07915      .   S
    Zr0    O67       2.10298      .   S
    N68    O69       1.04095      .   S
    Zr1    O69       2.01379      .   S
    N68    O70       1.01499      .   S
    Zr11   O70       2.01135      .   S
    N68    O71       1.05224      .   S
    Zr2    O71       2.03911      .   S
    N72    O73       1.08656      .   S
    Zr11   O73       2.10751      .   S
    N72    O74       1.02010      .   S
    Zr6    O74       1.97480      .   S
    N72    O75       1.02987      .   S
    Zr9    O75       2.03967      .   S
    N76    O77       1.05886      .   S
    Zr7    O77       2.07900      .   S
    N76    O78       1.07915      .   S
    Zr4    O78       2.10298      .   S
    N76    O79       1.02184      .   S
    Zr5    O79       1.98356  1_455   S
    N80    O81       1.05224      .   S
    Zr6    O81       2.03909      .   S
    N80    O82       1.01499      .   S
    Zr11   O82       2.01136      .   S
    N80    O83       1.04095      .   S
    Zr5    O83       2.01380      .   S
    N84    O85       1.05658      .   S
    Zr9    O85       2.06108  1_545   S
    N84    O86       1.06435      .   S
    Zr2    O86       2.07779      .   S
    N84    O87       1.04806      .   S
    Zr3    O87       2.04138      .   S
    N88    O89       1.02027  1_554   S
    Zr4    O89       1.97493  1_655   S
    N88    O90       1.02996      .   S
    Zr8    O90       2.03980  1_656   S
    N88    O91       1.08637      .   S
    Zr10   O91       2.10702      .   S
    N92    O93       1.08642      .   S
    Zr10   O93       2.10717  1_444   S
    N92    O94       1.03000      .   S
    Zr8    O94       2.03986      .   S
    N92    O95       1.02026  1_556   S
    Zr0    O95       1.97491  1_455   S
    N96    O97       1.05143      .   S
    Zr1    O97       2.06692      .   S
    N96    O98       1.07550      .   S
    Zr2    O98       2.09919      .   S
    N96    O99       1.05434      .   S
    Zr9    O99       2.04793  1_545   S
    N100   O101      1.06407  1_655   S
    Zr0    O101      2.07727      .   S
    N100   O102      1.04831      .   S
    Zr1    O102      2.04195      .   S
    N100   O103      1.05671      .   S
    Zr8    O103      2.06175  1_556   S
    N104   O105      1.01150      .   S
    Zr10   O105      2.00543  1_545   S
    N104   O106      1.05866      .   S
    Zr0    O106      2.04785      .   S
    N104   O107      1.05578      .   S
    Zr3    O107      2.03001      .   S
