# CIF file generated by openbabel 2.4.90, see http://openbabel.sf.net
data_I
_chemical_name_common ''
_cell_length_a 10.118
_cell_length_b 11.5955
_cell_length_c 14.799
_cell_angle_alpha 91.129
_cell_angle_beta 90.007
_cell_angle_gamma 90.057
_space_group_name_H-M_alt 'P 1'
_space_group_name_Hall 'P 1'
loop_
    _symmetry_equiv_pos_as_xyz
    x,y,z
loop_
    _atom_site_label
    _atom_site_type_symbol
    _atom_site_fract_x
    _atom_site_fract_y
    _atom_site_fract_z
    _atom_site_occupancy
    N0      N    0.33976   0.32365   0.82856   1.000
    N1      N    0.02389   0.47851   0.79152   1.000
    N2      N    0.39909   0.75715   0.53248   1.000
    N3      N    0.72807   0.07013   0.94247   1.000
    N4      N    0.66024   0.67634   0.17141   1.000
    N5      N    0.28185   0.57823   0.05114   1.000
    N6      N    0.36690   0.54893   0.31793   1.000
    N7      N    0.13295   0.04901   0.81790   1.000
    N8      N    0.63310   0.45105   0.68204   1.000
    N9      N    0.86706   0.95098   0.18207   1.000
    N10     N    0.52366   0.02146   0.70840   1.000
    N11     N    0.21806   0.07806   0.55108   1.000
    N12     N    0.71815   0.42176   0.94880   1.000
    N13     N    0.16039   0.82367   0.32863   1.000
    N14     N    0.77181   0.57030   0.44258   1.000
    N15     N    0.60091   0.24283   0.46749   1.000
    N16     N    0.83961   0.17631   0.67134   1.000
    N17     N    0.22819   0.42968   0.55739   1.000
    N18     N    0.47635   0.97853   0.29157   1.000
    N19     N    0.10081   0.25730   0.03254   1.000
    N20     N    0.89919   0.74269   0.96743   1.000
    N21     N    0.78194   0.92192   0.44890   1.000
    N22     N    0.97611   0.52148   0.20844   1.000
    N23     N    0.27193   0.92987   0.05442   1.000
    Zr24    Zr   0.88267   0.74055   0.30904   1.000
    O25     O    0.88247   0.80680   0.26261   1.000
    O26     O    0.91806   0.67206   0.27204   1.000
    O27     O    0.84075   0.79919   0.35402   1.000
    O28     O    0.85351   0.68176   0.35409   1.000
    O29     O    0.80287   0.71940   0.26769   1.000
    O30     O    0.97291   0.77059   0.32108   1.000
    Zr31    Zr   0.92803   0.24509   0.87033   1.000
    O32     O    0.89127   0.22222   0.80597   1.000
    O33     O    0.85347   0.30199   0.89228   1.000
    O34     O    0.98365   0.25681   0.92458   1.000
    O35     O    0.86802   0.18364   0.89672   1.000
    O36     O    0.99921   0.18422   0.84948   1.000
    O37     O    0.96363   0.31896   0.84006   1.000
    Zr38    Zr   1.00000   0.49999   1.00000   1.000
    O39     O    0.99405   0.50035   0.06954   1.000
    O40     O    0.02863   0.41613   0.00562   1.000
    O41     O    0.97137   0.58386   0.99437   1.000
    O42     O    0.90374   0.47797   0.98718   1.000
    O43     O    0.09626   0.52201   0.01278   1.000
    O44     O    0.00594   0.49964   0.93044   1.000
    Zr45    Zr   0.61735   0.24052   0.80901   1.000
    O46     O    0.65930   0.29914   0.85395   1.000
    O47     O    0.58186   0.17203   0.77200   1.000
    O48     O    0.64646   0.18169   0.85404   1.000
    O49     O    0.69709   0.21937   0.76764   1.000
    O50     O    0.52716   0.27057   0.82103   1.000
    O51     O    0.61759   0.30680   0.76258   1.000
    Zr52    Zr   0.00000   0.00000   0.00000   1.000
    O53     O    0.08700   0.96954   0.02145   1.000
    O54     O    0.03916   0.08298   0.01265   1.000
    O55     O    0.96083   0.91702   0.98734   1.000
    O56     O    0.91300   0.03046   0.97777   1.000
    O57     O    0.95349   0.99034   0.06057   1.000
    O58     O    0.04651   0.00965   0.93941   1.000
    Zr59    Zr   0.07197   0.75490   0.12964   1.000
    O60     O    0.01635   0.74317   0.07539   1.000
    O61     O    0.13198   0.81635   0.10248   1.000
    O62     O    0.03637   0.68103   0.15991   1.000
    O63     O    0.14653   0.69800   0.10768   1.000
    O64     O    0.00079   0.81577   0.15048   1.000
    O65     O    0.10873   0.77776   0.19400   1.000
    Zr66    Zr   0.50000   0.00000   0.49999   1.000
    O67     O    0.59629   0.97803   0.48720   1.000
    O68     O    0.50588   0.00035   0.56951   1.000
    O69     O    0.52866   0.08390   0.49438   1.000
    O70     O    0.49412   0.99965   0.43046   1.000
    O71     O    0.40371   0.02197   0.51277   1.000
    O72     O    0.47134   0.91610   0.50559   1.000
    Zr73    Zr   0.38265   0.75947   0.19096   1.000
    O74     O    0.41814   0.82796   0.22797   1.000
    O75     O    0.30291   0.78062   0.23233   1.000
    O76     O    0.35354   0.81830   0.14516   1.000
    O77     O    0.38241   0.69319   0.23739   1.000
    O78     O    0.47284   0.72942   0.17894   1.000
    O79     O    0.34070   0.70085   0.14601   1.000
    Zr80    Zr   0.50000   0.49999   0.49999   1.000
    O81     O    0.53918   0.41707   0.48735   1.000
    O82     O    0.41304   0.46947   0.52218   1.000
    O83     O    0.58696   0.53052   0.47779   1.000
    O84     O    0.54656   0.49036   0.56056   1.000
    O85     O    0.45344   0.50962   0.43941   1.000
    O86     O    0.46082   0.58292   0.51262   1.000
    Zr87    Zr   0.42801   0.25487   0.62959   1.000
    O88     O    0.48367   0.24320   0.57538   1.000
    O89     O    0.36804   0.31627   0.60318   1.000
    O90     O    0.39131   0.27774   0.69394   1.000
    O91     O    0.46353   0.18100   0.65986   1.000
    O92     O    0.35342   0.19794   0.60762   1.000
    O93     O    0.49925   0.31577   0.65044   1.000
    Zr94    Zr   0.11733   0.25944   0.69093   1.000
    O95     O    0.14649   0.31823   0.64587   1.000
    O96     O    0.19713   0.28059   0.73228   1.000
    O97     O    0.02709   0.22939   0.67889   1.000
    O98     O    0.15925   0.20079   0.64596   1.000
    O99     O    0.11753   0.19319   0.73736   1.000
    O100    O    0.08194   0.32793   0.72793   1.000
    Zr101   Zr   0.57199   0.74511   0.37038   1.000
    O102    O    0.53647   0.81899   0.34011   1.000
    O103    O    0.64658   0.80205   0.39235   1.000
    O104    O    0.51633   0.75679   0.42459   1.000
    O105    O    0.63196   0.68372   0.39679   1.000
    O106    O    0.60869   0.72225   0.30603   1.000
    O107    O    0.50075   0.68422   0.34953   1.000
loop_
    _geom_bond_atom_site_label_1
    _geom_bond_atom_site_label_2
    _geom_bond_distance
    _geom_bond_site_symmetry_2
    _ccdc_geom_bond_type
    Zr24   O25       1.04070      .   S
    N9     O25       2.07829      .   S
    Zr24   O26       1.02097      .   S
    N22    O26       2.05343      .   S
    Zr24   O27       1.03346      .   S
    N21    O27       2.06736      .   S
    Zr24   O28       1.00690      .   S
    N14    O28       2.03303      .   S
    Zr24   O29       1.03929      .   S
    N4     O29       2.08138      .   S
    Zr24   O30       0.99178      .   S
    N13    O30       1.99623  1_455   S
    Zr31   O32       1.05149      .   S
    N16    O32       2.11751      .   S
    Zr31   O33       1.04999      .   S
    N12    O33       2.11216      .   S
    Zr31   O34       0.98746      .   S
    N19    O34       1.98935  1_454   S
    Zr31   O35       1.01934      .   S
    N3     O35       2.05612      .   S
    Zr31   O36       1.05097      .   S
    N7     O36       2.11732  1_455   S
    Zr31   O37       1.03863      .   S
    N1     O37       2.08816  1_455   S
    Zr38   O39       1.03087  1_556   S
    N22    O39       2.07336      .   S
    Zr38   O40       1.01990  1_656   S
    N19    O40       2.02872      .   S
    Zr38   O41       1.01993      .   S
    N20    O41       2.02880      .   S
    Zr38   O42       1.02337      .   S
    N12    O42       2.06303      .   S
    Zr38   O43       1.02332  1_656   S
    N5     O43       2.06298      .   S
    Zr38   O44       1.03104  1_655   S
    N1     O44       2.07363      .   S
    Zr45   O46       1.03250      .   S
    N12    O46       2.06548      .   S
    Zr45   O47       1.02069      .   S
    N10    O47       2.05285      .   S
    Zr45   O48       1.00729      .   S
    N3     O48       2.03385      .   S
    Zr45   O49       1.03950      .   S
    N16    O49       2.08173      .   S
    Zr45   O50       0.99192      .   S
    N0     O50       1.99657      .   S
    Zr45   O51       1.04094      .   S
    N8     O51       2.07876      .   S
    Zr52   O53       1.00272  1_545   S
    N23    O53       1.99027      .   S
    Zr52   O54       1.05351      .   S
    N19    O54       2.12968      .   S
    Zr52   O55       1.05359  1_444   S
    N20    O55       2.12981      .   S
    Zr52   O56       1.00649  1_454   S
    N3     O56       1.99911      .   S
    Zr52   O57       1.02056  1_445   S
    N9     O57       2.05860      .   S
    Zr52   O58       1.02070  1_554   S
    N7     O58       2.05882      .   S
    Zr59   O60       0.98745      .   S
    N20    O60       1.98933  1_656   S
    Zr59   O61       1.02392      .   S
    N23    O61       2.06805      .   S
    Zr59   O62       1.03863      .   S
    N22    O62       2.08816  1_655   S
    Zr59   O63       1.05002      .   S
    N5     O63       2.11227      .   S
    Zr59   O64       1.05096      .   S
    N9     O64       2.11732  1_655   S
    Zr59   O65       1.05149      .   S
    N13    O65       2.11751      .   S
    Zr66   O67       1.02396  1_545   S
    N21    O67       2.06424      .   S
    Zr66   O68       1.03054      .   S
    N10    O68       2.07288      .   S
    Zr66   O69       1.01983      .   S
    N15    O69       2.02857      .   S
    Zr66   O70       1.03054  1_545   S
    N18    O70       2.07290      .   S
    Zr66   O71       1.02398      .   S
    N11    O71       2.06424      .   S
    Zr66   O72       1.01992  1_545   S
    N2     O72       2.02870      .   S
    Zr73   O74       1.02069      .   S
    N18    O74       2.05286      .   S
    Zr73   O75       1.03950      .   S
    N13    O75       2.08173      .   S
    Zr73   O76       1.01500      .   S
    N23    O76       2.05639      .   S
    Zr73   O77       1.04095      .   S
    N6     O77       2.07877      .   S
    Zr73   O78       0.99192      .   S
    N4     O78       1.99657      .   S
    Zr73   O79       1.03255      .   S
    N5     O79       2.06566      .   S
    Zr80   O81       1.05375      .   S
    N15    O81       2.13013      .   S
    Zr80   O82       1.00568      .   S
    N17    O82       1.99759      .   S
    Zr80   O83       1.00568      .   S
    N14    O83       1.99759      .   S
    Zr80   O84       1.02073      .   S
    N8     O84       2.05892      .   S
    Zr80   O85       1.02074      .   S
    N6     O85       2.05893      .   S
    Zr80   O86       1.05375      .   S
    N2     O86       2.13012      .   S
    Zr87   O88       0.98740      .   S
    N15    O88       1.98911      .   S
    Zr87   O89       1.01955      .   S
    N17    O89       2.05662      .   S
    Zr87   O90       1.05148      .   S
    N0     O90       2.11741      .   S
    Zr87   O91       1.03890      .   S
    N10    O91       2.08872      .   S
    Zr87   O92       1.04960      .   S
    N11    O92       2.11141      .   S
    Zr87   O93       1.05063      .   S
    N8     O93       2.11660      .   S
    Zr94   O95       1.00690      .   S
    N17    O95       2.03303      .   S
    Zr94   O96       1.03929      .   S
    N0     O96       2.08138      .   S
    Zr94   O97       0.99178      .   S
    N16    O97       1.99623  1_655   S
    Zr94   O98       1.03346      .   S
    N11    O98       2.06736      .   S
    Zr94   O99       1.04070      .   S
    N7     O99       2.07827      .   S
    Zr94   O100      1.02098      .   S
    N1     O100      2.05344      .   S
    Zr101  O102      1.03889      .   S
    N18    O102      2.08872      .   S
    Zr101  O103      1.04959      .   S
    N21    O103      2.11140      .   S
    Zr101  O104      0.98740      .   S
    N2     O104      1.98911      .   S
    Zr101  O105      1.01955      .   S
    N14    O105      2.05663      .   S
    Zr101  O106      1.05148      .   S
    N4     O106      2.11742      .   S
    Zr101  O107      1.05063      .   S
    N6     O107      2.11661      .   S
