# CIF file generated by openbabel 2.4.90, see http://openbabel.sf.net
data_I
_chemical_name_common ''
_cell_length_a 10.118
_cell_length_b 11.5955
_cell_length_c 14.799
_cell_angle_alpha 91.129
_cell_angle_beta 90.007
_cell_angle_gamma 90.057
_space_group_name_H-M_alt 'P 1'
_space_group_name_Hall 'P 1'
loop_
    _symmetry_equiv_pos_as_xyz
    x,y,z
loop_
    _atom_site_label
    _atom_site_type_symbol
    _atom_site_fract_x
    _atom_site_fract_y
    _atom_site_fract_z
    _atom_site_occupancy
    C0      C    0.07197   0.75490   0.12964   1.000
    C1      C    0.88267   0.74055   0.30904   1.000
    C2      C    0.57199   0.74511   0.37038   1.000
    C3      C    0.38265   0.75947   0.19096   1.000
    C4      C    0.92803   0.24509   0.87033   1.000
    C5      C    0.11733   0.25944   0.69093   1.000
    C6      C    0.42801   0.25487   0.62959   1.000
    C7      C    0.61735   0.24052   0.80901   1.000
    C8      C    1.00000   0.49999   1.00000   1.000
    C9      C    0.50000   0.00000   0.49999   1.000
    C10     C    0.00000   0.00000   0.00000   1.000
    C11     C    0.50000   0.49999   0.49999   1.000
    C12     C    0.24247   0.85596   0.37243   1.000
    C13     C    0.94948   0.47546   0.27153   1.000
    C14     C    0.38992   0.56281   0.04326   1.000
    C15     C    0.79533   0.98134   0.23428   1.000
    C16     C    0.83762   0.69085   0.91938   1.000
    C17     C    0.29112   0.00331   0.00000   1.000
    C18     C    0.74222   0.64402   0.12760   1.000
    C19     C    0.44989   0.02454   0.22847   1.000
    C20     C    0.89000   0.93757   0.45684   1.000
    C21     C    0.29509   0.51848   0.26575   1.000
    C22     C    0.33738   0.80891   0.58040   1.000
    C23     C    0.79089   0.49700   0.48789   1.000
    C24     C    0.75753   0.14402   0.62753   1.000
    C25     C    0.05051   0.52452   0.72843   1.000
    C26     C    0.61008   0.43717   0.95671   1.000
    C27     C    0.20468   0.01865   0.76569   1.000
    C28     C    0.16237   0.30914   0.08059   1.000
    C29     C    0.70888   0.99668   0.98767   1.000
    C30     C    0.25778   0.35597   0.87236   1.000
    C31     C    0.55012   0.97545   0.77150   1.000
    C32     C    0.11000   0.06242   0.54313   1.000
    C33     C    0.70492   0.48150   0.73422   1.000
    C34     C    0.66262   0.19108   0.41957   1.000
    C35     C    0.20911   0.50298   0.51208   1.000
    C36     C    0.16079   0.82382   0.32941   1.000
    C37     C    0.97585   0.51986   0.20860   1.000
    C38     C    0.28240   0.57738   0.05032   1.000
    C39     C    0.86673   0.95211   0.18198   1.000
    C40     C    0.89824   0.74363   0.96634   1.000
    C41     C    0.27330   0.93026   0.05730   1.000
    C42     C    0.66064   0.67619   0.17063   1.000
    C43     C    0.47609   0.98014   0.29142   1.000
    C44     C    0.78249   0.92277   0.44975   1.000
    C45     C    0.36658   0.54779   0.31802   1.000
    C46     C    0.39814   0.75621   0.53356   1.000
    C47     C    0.77318   0.56991   0.44279   1.000
    C48     C    0.83921   0.17617   0.67056   1.000
    C49     C    0.02415   0.48013   0.79137   1.000
    C50     C    0.71760   0.42261   0.94965   1.000
    C51     C    0.13327   0.04788   0.81799   1.000
    C52     C    0.10176   0.25635   0.03363   1.000
    C53     C    0.72670   0.06973   0.94267   1.000
    C54     C    0.33936   0.32380   0.82934   1.000
    C55     C    0.52391   0.01985   0.70855   1.000
    C56     C    0.21751   0.07721   0.55022   1.000
    C57     C    0.63342   0.45219   0.68195   1.000
    C58     C    0.60186   0.24377   0.46641   1.000
    C59     C    0.22682   0.43008   0.55718   1.000
    C60     C    0.18920   0.80026   0.24654   1.000
    C61     C    0.04912   0.81466   0.36614   1.000
    C62     C    0.97889   0.63074   0.21418   1.000
    C63     C    0.00022   0.45986   0.13946   1.000
    C64     C    0.24867   0.65304   0.11098   1.000
    C65     C    0.20639   0.51969   0.00000   1.000
    C66     C    0.91235   0.84968   0.19155   1.000
    C67     C    0.89382   0.02078   0.12046   1.000
    C68     C    0.97258   0.68551   0.02010   1.000
    C69     C    0.88830   0.85078   0.96389   1.000
    C70     C    0.15214   0.89655   0.06278   1.000
    C71     C    0.37117   0.88934   0.09762   1.000
    C72     C    0.68914   0.69975   0.25349   1.000
    C73     C    0.54897   0.68538   0.13391   1.000
    C74     C    0.47914   0.86926   0.28580   1.000
    C75     C    0.50028   0.04016   0.36061   1.000
    C76     C    0.74883   0.84696   0.38913   1.000
    C77     C    0.70643   0.98038   0.49986   1.000
    C78     C    0.41221   0.65030   0.30845   1.000
    C79     C    0.39374   0.47915   0.37950   1.000
    C80     C    0.47253   0.81444   0.47985   1.000
    C81     C    0.38833   0.64905   0.53610   1.000
    C82     C    0.65208   0.60357   0.43726   1.000
    C83     C    0.87110   0.61073   0.40238   1.000
    C84     C    0.81080   0.19973   0.75342   1.000
    C85     C    0.95088   0.18533   0.63383   1.000
    C86     C    0.02111   0.36925   0.78578   1.000
    C87     C    0.99978   0.54013   0.86051   1.000
    C88     C    0.75133   0.34696   0.88898   1.000
    C89     C    0.79361   0.48030   0.99988   1.000
    C90     C    0.08765   0.15030   0.80842   1.000
    C91     C    0.10618   0.97921   0.87951   1.000
    C92     C    0.02742   0.31448   0.97987   1.000
    C93     C    0.11169   0.14921   0.03608   1.000
    C94     C    0.84786   0.10344   0.93719   1.000
    C95     C    0.62883   0.11065   0.90235   1.000
    C96     C    0.31086   0.30023   0.74648   1.000
    C97     C    0.45103   0.31461   0.86606   1.000
    C98     C    0.52087   0.13072   0.71417   1.000
    C99     C    0.49972   0.95983   0.63936   1.000
    C100    C    0.25117   0.15302   0.61085   1.000
    C101    C    0.29357   0.01961   0.50011   1.000
    C102    C    0.58779   0.34969   0.69152   1.000
    C103    C    0.60626   0.52083   0.62046   1.000
    C104    C    0.52747   0.18554   0.52012   1.000
    C105    C    0.61167   0.35094   0.46387   1.000
    C106    C    0.34792   0.39641   0.56271   1.000
    C107    C    0.12890   0.38926   0.59758   1.000
    O108    O    0.24440   0.54854   0.02516   1.000
    O109    O    0.10319   0.50984   0.00000   1.000
    O110    O    0.28221   0.96679   0.02865   1.000
    O111    O    0.05585   0.07460   0.01804   1.000
    O112    O    0.94691   0.01039   0.06023   1.000
    O113    O    0.05309   0.98960   0.93976   1.000
    O114    O    0.94415   0.92539   0.98195   1.000
    O115    O    0.02228   0.72020   0.07487   1.000
    O116    O    0.93541   0.71457   0.99322   1.000
    O117    O    0.10672   0.20278   0.03486   1.000
    O118    O    0.13206   0.28275   0.05711   1.000
    O119    O    0.06459   0.28542   0.00675   1.000
    O120    O    0.33616   0.57010   0.04679   1.000
    O121    O    0.26554   0.61521   0.08065   1.000
    O122    O    0.21272   0.91340   0.06004   1.000
    O123    O    0.32223   0.90980   0.07746   1.000
    O124    O    0.11206   0.82572   0.09621   1.000
    O125    O    0.37691   0.82440   0.14429   1.000
    O126    O    0.16032   0.70397   0.12031   1.000
    O127    O    0.88027   0.98644   0.15122   1.000
    O128    O    0.70143   0.66011   0.14912   1.000
    O129    O    0.99216   0.80229   0.16060   1.000
    O130    O    0.13058   0.77758   0.18809   1.000
    O131    O    0.60480   0.68078   0.15227   1.000
    O132    O    0.46581   0.72242   0.16244   1.000
    O133    O    0.98803   0.48986   0.17403   1.000
    O134    O    0.00011   0.47993   0.06973   1.000
    O135    O    0.67489   0.68797   0.21206   1.000
    O136    O    0.88954   0.90090   0.18676   1.000
    O137    O    0.83103   0.96673   0.20813   1.000
    O138    O    0.43089   0.81436   0.23838   1.000
    O139    O    0.97737   0.57530   0.21139   1.000
    O140    O    0.96267   0.49766   0.24006   1.000
    O141    O    0.93078   0.68564   0.26161   1.000
    O142    O    0.46299   0.00234   0.25994   1.000
    O143    O    0.17499   0.81204   0.28798   1.000
    O144    O    0.63056   0.72243   0.31194   1.000
    O145    O    0.33083   0.53314   0.29188   1.000
    O146    O    0.47761   0.92470   0.28861   1.000
    O147    O    0.48818   0.01015   0.32601   1.000
    O148    O    0.38940   0.59904   0.31324   1.000
    O149    O    0.49210   0.69770   0.33942   1.000
    O150    O    0.96589   0.77760   0.33759   1.000
    O151    O    0.87688   0.67564   0.35571   1.000
    O152    O    0.38016   0.51347   0.34876   1.000
    O153    O    0.10495   0.81924   0.34778   1.000
    O154    O    0.20163   0.83989   0.35092   1.000
    O155    O    0.50014   0.02008   0.43030   1.000
    O156    O    0.66041   0.79604   0.37976   1.000
    O157    O    0.61204   0.67434   0.40382   1.000
    O158    O    0.52226   0.77978   0.42512   1.000
    O159    O    0.44687   0.48957   0.43974   1.000
    O160    O    0.76566   0.88487   0.41944   1.000
    O161    O    0.82214   0.59032   0.42259   1.000
    O162    O    0.63224   0.21742   0.44299   1.000
    O163    O    0.71263   0.58674   0.44003   1.000
    O164    O    0.78203   0.53346   0.46534   1.000
    O165    O    0.83625   0.93017   0.45330   1.000
    O166    O    0.74446   0.95157   0.47481   1.000
    O167    O    0.60676   0.29735   0.46514   1.000
    O168    O    0.55583   0.42547   0.48193   1.000
    O169    O    0.56466   0.21466   0.49327   1.000
    O170    O    0.43533   0.78533   0.50670   1.000
    O171    O    0.60322   0.99019   0.49993   1.000
    O172    O    0.44417   0.57452   0.51804   1.000
    O173    O    0.55313   0.51041   0.56022   1.000
    O174    O    0.39679   0.00981   0.50005   1.000
    O175    O    0.49986   0.97992   0.56967   1.000
    O176    O    0.25554   0.04841   0.52516   1.000
    O177    O    0.21797   0.46653   0.53463   1.000
    O178    O    0.47774   0.22021   0.57485   1.000
    O179    O    0.39324   0.70263   0.53483   1.000
    O180    O    0.36776   0.78256   0.55698   1.000
    O181    O    0.16375   0.06981   0.54668   1.000
    O182    O    0.23434   0.11511   0.58054   1.000
    O183    O    0.28737   0.41324   0.55994   1.000
    O184    O    0.17786   0.40967   0.57738   1.000
    O185    O    0.38796   0.32564   0.59615   1.000
    O186    O    0.12312   0.32435   0.64426   1.000
    O187    O    0.33959   0.20394   0.62022   1.000
    O188    O    0.61984   0.48651   0.65121   1.000
    O189    O    0.79837   0.16010   0.64905   1.000
    O190    O    0.50790   0.30228   0.66055   1.000
    O191    O    0.36944   0.27755   0.68803   1.000
    O192    O    0.89505   0.18075   0.65219   1.000
    O193    O    0.03411   0.22238   0.66238   1.000
    O194    O    0.51182   0.98984   0.67396   1.000
    O195    O    0.82501   0.18795   0.71199   1.000
    O196    O    0.61060   0.40094   0.68673   1.000
    O197    O    0.66917   0.46685   0.70808   1.000
    O198    O    0.06922   0.31434   0.73836   1.000
    O199    O    0.52239   0.07529   0.71136   1.000
    O200    O    0.53702   0.99765   0.74003   1.000
    O201    O    0.56911   0.18562   0.76159   1.000
    O202    O    0.03733   0.50233   0.75990   1.000
    O203    O    0.32511   0.31201   0.78791   1.000
    O204    O    0.86941   0.22241   0.81188   1.000
    O205    O    0.16898   0.03326   0.79184   1.000
    O206    O    0.02263   0.42469   0.78858   1.000
    O207    O    0.01196   0.51013   0.82594   1.000
    O208    O    0.11046   0.09909   0.81321   1.000
    O209    O    0.00784   0.19770   0.83937   1.000
    O210    O    0.53419   0.27757   0.83753   1.000
    O211    O    0.62309   0.17558   0.85568   1.000
    O212    O    0.11973   0.01354   0.84875   1.000
    O213    O    0.39519   0.31920   0.84770   1.000
    O214    O    0.29857   0.33988   0.85085   1.000
    O215    O    0.99989   0.52006   0.93025   1.000
    O216    O    0.83968   0.29602   0.87965   1.000
    O217    O    0.88794   0.17427   0.90376   1.000
    O218    O    0.97772   0.27979   0.92510   1.000
    O219    O    0.73446   0.38478   0.91931   1.000
    O220    O    0.67777   0.09019   0.92251   1.000
    O221    O    0.86793   0.71724   0.94286   1.000
    O222    O    0.78728   0.08659   0.93993   1.000
    O223    O    0.71779   0.03321   0.96517   1.000
    O224    O    0.66384   0.42989   0.95318   1.000
    O225    O    0.75560   0.45145   0.97476   1.000
    O226    O    0.89327   0.79721   0.96512   1.000
    O227    O    0.89680   0.49014   0.99994   1.000
    O228    O    0.28592   0.77986   0.21875   1.000
    O229    O    0.02543   0.69282   0.17191   1.000
    O230    O    0.31566   0.70625   0.15097   1.000
    O231    O    0.89751   0.79512   0.25030   1.000
    O232    O    0.98629   0.59275   0.01005   1.000
    O233    O    0.07607   0.94828   0.03139   1.000
    O234    O    0.78590   0.72015   0.28127   1.000
    O235    O    0.52556   0.80719   0.32809   1.000
    O236    O    0.81575   0.79376   0.34908   1.000
    O237    O    0.39743   0.70488   0.24971   1.000
    O238    O    0.48626   0.90722   0.48992   1.000
    O239    O    0.57604   0.55178   0.46862   1.000
    O240    O    0.71407   0.22012   0.78121   1.000
    O241    O    0.97457   0.30717   0.82806   1.000
    O242    O    0.68434   0.29374   0.84899   1.000
    O243    O    0.10249   0.20487   0.74967   1.000
    O244    O    0.01371   0.40724   0.98994   1.000
    O245    O    0.92393   0.05172   0.96860   1.000
    O246    O    0.21410   0.27984   0.71870   1.000
    O247    O    0.47444   0.19280   0.67188   1.000
    O248    O    0.18425   0.20623   0.65089   1.000
    O249    O    0.60257   0.29511   0.75026   1.000
    O250    O    0.51374   0.09277   0.51005   1.000
    O251    O    0.42396   0.44820   0.53135   1.000
loop_
    _geom_bond_atom_site_label_1
    _geom_bond_atom_site_label_2
    _geom_bond_distance
    _geom_bond_site_symmetry_2
    _ccdc_geom_bond_type
    C65    O108      0.62705      .   S
    C38    O108      0.62705      .   S
    C65    O109      1.05026      .   S
    C8     O109      1.05026  1_656   S
    C17    O110      0.61177  1_545   S
    C41    O110      0.61177      .   S
    C10    O111      1.06245      .   S
    C93    O111      1.06245      .   S
    C10    O112      1.04574  1_455   S
    C67    O112      1.04574      .   S
    C10    O113      1.04594  1_544   S
    C91    O113      1.04594      .   S
    C10    O114      1.06256  1_444   S
    C69    O114      1.06256      .   S
    C68    O115      1.02874  1_655   S
    C0     O115      1.02874      .   S
    C68    O116      0.64712  1_554   S
    C40    O116      0.64712      .   S
    C52    O117      0.62389      .   S
    C93    O117      0.62389      .   S
    C52    O118      0.55139      .   S
    C28    O118      0.55139      .   S
    C52    O119      0.64712      .   S
    C92    O119      0.64712  1_556   S
    C14    O120      0.55285      .   S
    C38    O120      0.55285      .   S
    C38    O121      0.64455      .   S
    C64    O121      0.64455      .   S
    C41    O122      0.64467      .   S
    C70    O122      0.64467      .   S
    C41    O123      0.62724      .   S
    C71    O123      0.62724      .   S
    C70    O124      1.04838      .   S
    C0     O124      1.04838      .   S
    C71    O125      1.03344      .   S
    C3     O125      1.03344      .   S
    C64    O126      1.07926      .   S
    C0     O126      1.07926      .   S
    C67    O127      0.62574  1_545   S
    C39    O127      0.62574      .   S
    C18    O128      0.55166      .   S
    C42    O128      0.55166      .   S
    C0     O129      1.07473  1_455   S
    C66    O129      1.07473      .   S
    C0     O130      1.07693      .   S
    C60    O130      1.07693      .   S
    C73    O131      0.62957      .   S
    C42    O131      0.62957      .   S
    C73    O132      1.03168      .   S
    C3     O132      1.03168      .   S
    C63    O133      0.62528  1_455   S
    C37    O133      0.62528      .   S
    C63    O134      1.06232      .   S
    C8     O134      1.06232  1_656   S
    C42    O135      0.64190      .   S
    C72    O135      0.64190      .   S
    C39    O136      0.64255      .   S
    C66    O136      0.64255      .   S
    C39    O137      0.55367      .   S
    C15    O137      0.55367      .   S
    C3     O138      1.05719      .   S
    C74    O138      1.05719      .   S
    C37    O139      0.64355      .   S
    C62    O139      0.64355      .   S
    C37    O140      0.55279      .   S
    C13    O140      0.55279      .   S
    C62    O141      1.05737      .   S
    C1     O141      1.05737      .   S
    C19    O142      0.55283      .   S
    C43    O142      0.55283  1_565   S
    C60    O143      0.64191      .   S
    C36    O143      0.64191      .   S
    C72    O144      1.07703      .   S
    C2     O144      1.07703      .   S
    C21    O145      0.55368      .   S
    C45    O145      0.55368      .   S
    C74    O146      0.64353      .   S
    C43    O146      0.64353      .   S
    C43    O147      0.62535  1_565   S
    C75    O147      0.62535      .   S
    C78    O148      0.64255      .   S
    C45    O148      0.64255      .   S
    C78    O149      1.07456      .   S
    C2     O149      1.07456      .   S
    C1     O150      1.03165      .   S
    C61    O150      1.03165  1_455   S
    C1     O151      1.03315      .   S
    C83    O151      1.03315      .   S
    C45    O152      0.62566      .   S
    C79    O152      0.62566      .   S
    C36    O153      0.62957      .   S
    C61    O153      0.62957      .   S
    C36    O154      0.55167      .   S
    C12    O154      0.55167      .   S
    C75    O155      1.06175      .   S
    C9     O155      1.06175      .   S
    C2     O156      1.07889      .   S
    C76    O156      1.07889      .   S
    C2     O157      1.04839      .   S
    C82    O157      1.04839      .   S
    C2     O158      1.02884      .   S
    C80    O158      1.02884      .   S
    C79    O159      1.04588      .   S
    C11    O159      1.04588      .   S
    C76    O160      0.64455      .   S
    C44    O160      0.64455      .   S
    C83    O161      0.62721      .   S
    C47    O161      0.62721      .   S
    C34    O162      0.55138      .   S
    C58    O162      0.55138      .   S
    C82    O163      0.64469      .   S
    C47    O163      0.64469      .   S
    C47    O164      0.55107      .   S
    C23    O164      0.55107      .   S
    C44    O165      0.55287      .   S
    C20    O165      0.55287      .   S
    C44    O166      0.62653      .   S
    C77    O166      0.62653      .   S
    C105   O167      0.62388      .   S
    C58    O167      0.62388      .   S
    C105   O168      1.06269      .   S
    C11    O168      1.06269      .   S
    C58    O169      0.64700      .   S
    C104   O169      0.64700      .   S
    C80    O170      0.64699      .   S
    C46    O170      0.64699      .   S
    C77    O171      1.05060      .   S
    C9     O171      1.05060  1_545   S
    C11    O172      1.06269      .   S
    C81    O172      1.06269      .   S
    C11    O173      1.04587      .   S
    C103   O173      1.04587      .   S
    C9     O174      1.05064      .   S
    C101   O174      1.05064      .   S
    C9     O175      1.06177  1_545   S
    C99    O175      1.06177      .   S
    C101   O176      0.62653      .   S
    C56    O176      0.62653      .   S
    C35    O177      0.55107      .   S
    C59    O177      0.55107      .   S
    C104   O178      1.02884      .   S
    C6     O178      1.02884      .   S
    C46    O179      0.62389      .   S
    C81    O179      0.62389      .   S
    C46    O180      0.55138      .   S
    C22    O180      0.55138      .   S
    C32    O181      0.55287      .   S
    C56    O181      0.55287      .   S
    C56    O182      0.64456      .   S
    C100   O182      0.64456      .   S
    C59    O183      0.64469      .   S
    C106   O183      0.64469      .   S
    C59    O184      0.62721      .   S
    C107   O184      0.62721      .   S
    C106   O185      1.04837      .   S
    C6     O185      1.04837      .   S
    C107   O186      1.03316      .   S
    C5     O186      1.03316      .   S
    C100   O187      1.07890      .   S
    C6     O187      1.07890      .   S
    C103   O188      0.62566      .   S
    C57    O188      0.62566      .   S
    C24    O189      0.55166      .   S
    C48    O189      0.55166      .   S
    C6     O190      1.07454      .   S
    C102   O190      1.07454      .   S
    C6     O191      1.07703      .   S
    C96    O191      1.07703      .   S
    C85    O192      0.62958      .   S
    C48    O192      0.62958      .   S
    C85    O193      1.03166  1_655   S
    C5     O193      1.03166      .   S
    C99    O194      0.62535      .   S
    C55    O194      0.62535  1_545   S
    C48    O195      0.64191      .   S
    C84    O195      0.64191      .   S
    C57    O196      0.64255      .   S
    C102   O196      0.64255      .   S
    C57    O197      0.55367      .   S
    C33    O197      0.55367      .   S
    C5     O198      1.05737      .   S
    C86    O198      1.05737      .   S
    C55    O199      0.64352      .   S
    C98    O199      0.64352      .   S
    C55    O200      0.55282  1_545   S
    C31    O200      0.55282      .   S
    C98    O201      1.05719      .   S
    C7     O201      1.05719      .   S
    C25    O202      0.55280      .   S
    C49    O202      0.55280      .   S
    C96    O203      0.64189      .   S
    C54    O203      0.64189      .   S
    C84    O204      1.07692      .   S
    C4     O204      1.07692      .   S
    C27    O205      0.55368      .   S
    C51    O205      0.55368      .   S
    C86    O206      0.64355      .   S
    C49    O206      0.64355      .   S
    C49    O207      0.62529      .   S
    C87    O207      0.62529  1_655   S
    C90    O208      0.64254      .   S
    C51    O208      0.64254      .   S
    C90    O209      1.07473      .   S
    C4     O209      1.07473  1_655   S
    C7     O210      1.03169      .   S
    C97    O210      1.03169      .   S
    C7     O211      1.03344      .   S
    C95    O211      1.03344      .   S
    C51    O212      0.62574      .   S
    C91    O212      0.62574  1_565   S
    C54    O213      0.62957      .   S
    C97    O213      0.62957      .   S
    C54    O214      0.55166      .   S
    C30    O214      0.55166      .   S
    C87    O215      1.06254      .   S
    C8     O215      1.06254      .   S
    C4     O216      1.07926      .   S
    C88    O216      1.07926      .   S
    C4     O217      1.04836      .   S
    C94    O217      1.04836      .   S
    C4     O218      1.02875      .   S
    C92    O218      1.02875  1_455   S
    C88    O219      0.64454      .   S
    C50    O219      0.64454      .   S
    C95    O220      0.62724      .   S
    C53    O220      0.62724      .   S
    C16    O221      0.55139      .   S
    C40    O221      0.55139      .   S
    C94    O222      0.64468      .   S
    C53    O222      0.64468      .   S
    C53    O223      0.55125      .   S
    C29    O223      0.55125  1_565   S
    C50    O224      0.55285      .   S
    C26    O224      0.55285      .   S
    C50    O225      0.62666      .   S
    C89    O225      0.62666      .   S
    C69    O226      0.62390      .   S
    C40    O226      0.62390      .   S
    C89    O227      1.05023      .   S
    C8     O227      1.05023      .   S
    C60    O228      1.08613      .   S
    C3     O228      1.08613      .   S
    C62    O229      1.07166  1_655   S
    C0     O229      1.07166      .   S
    C64    O230      1.08401      .   S
    C3     O230      1.08401      .   S
    C66    O231      1.09554      .   S
    C1     O231      1.09554      .   S
    C68    O232      1.09187      .   S
    C8     O232      1.09187  1_556   S
    C70    O233      1.08616      .   S
    C10    O233      1.08616  1_545   S
    C72    O234      1.08586      .   S
    C1     O234      1.08586      .   S
    C74    O235      1.07182      .   S
    C2     O235      1.07182      .   S
    C76    O236      1.08479      .   S
    C1     O236      1.08479      .   S
    C78    O237      1.09572      .   S
    C3     O237      1.09572      .   S
    C80    O238      1.09193      .   S
    C9     O238      1.09193  1_545   S
    C82    O239      1.08543      .   S
    C11    O239      1.08543      .   S
    C84    O240      1.08613      .   S
    C7     O240      1.08613      .   S
    C86    O241      1.07167  1_455   S
    C4     O241      1.07167      .   S
    C88    O242      1.08402      .   S
    C7     O242      1.08402      .   S
    C90    O243      1.09553      .   S
    C5     O243      1.09553      .   S
    C92    O244      1.09188      .   S
    C8     O244      1.09188  1_655   S
    C94    O245      1.08622      .   S
    C10    O245      1.08622  1_454   S
    C96    O246      1.08586      .   S
    C5     O246      1.08586      .   S
    C98    O247      1.07183      .   S
    C6     O247      1.07183      .   S
    C100   O248      1.08479      .   S
    C5     O248      1.08479      .   S
    C102   O249      1.09571      .   S
    C7     O249      1.09571      .   S
    C104   O250      1.09182      .   S
    C9     O250      1.09182      .   S
    C106   O251      1.08544      .   S
    C11    O251      1.08544      .   S
