# CIF file generated by openbabel 2.4.90, see http://openbabel.sf.net
data_I
_chemical_name_common ''
_cell_length_a 14.017
_cell_length_b 15.199
_cell_length_c 15.249
_cell_angle_alpha 85.04
_cell_angle_beta 87.603
_cell_angle_gamma 83.928
_space_group_name_H-M_alt 'P 1'
_space_group_name_Hall 'P 1'
loop_
    _symmetry_equiv_pos_as_xyz
    x,y,z
loop_
    _atom_site_label
    _atom_site_type_symbol
    _atom_site_fract_x
    _atom_site_fract_y
    _atom_site_fract_z
    _atom_site_occupancy
    Zn0     Zn   0.31284   0.88119   0.15500   1.000
    Zn1     Zn   0.89089   0.09964   0.84009   1.000
    Zn2     Zn   0.68721   0.11877   0.84499   1.000
    Zn3     Zn   0.10917   0.90032   0.15991   1.000
    C4      C    0.21851   0.89403   0.98422   1.000
    C5      C    0.20764   0.88709   0.33003   1.000
    C6      C    0.21673   0.71920   0.16307   1.000
    C7      C    0.20484   0.06418   0.15393   1.000
    C8      C    0.78163   0.10593   0.01578   1.000
    C9      C    0.79240   0.11289   0.66998   1.000
    C10     C    0.78331   0.28077   0.83693   1.000
    C11     C    0.79522   0.93579   0.84607   1.000
    O12     O    0.29898   0.90418   0.01561   1.000
    O13     O    0.13953   0.88891   0.02810   1.000
    O14     O    0.28783   0.86387   0.29226   1.000
    O15     O    0.12858   0.91118   0.29197   1.000
    O16     O    0.12378   0.03781   0.14089   1.000
    O17     O    0.29589   0.75222   0.14400   1.000
    O18     O    0.13696   0.76250   0.18157   1.000
    O19     O    0.28407   0.01515   0.16295   1.000
    O20     O    0.70116   0.09578   0.98437   1.000
    O21     O    0.86062   0.11105   0.97192   1.000
    O22     O    0.71221   0.13610   0.70774   1.000
    O23     O    0.87146   0.08879   0.70803   1.000
    O24     O    0.87628   0.96215   0.85911   1.000
    O25     O    0.70415   0.24775   0.85600   1.000
    O26     O    0.86308   0.23746   0.81844   1.000
    O27     O    0.71599   0.98482   0.83705   1.000
loop_
    _geom_bond_atom_site_label_1
    _geom_bond_atom_site_label_2
    _geom_bond_distance
    _geom_bond_site_symmetry_2
    _ccdc_geom_bond_type
    O12    Zn0       2.13768      .   S
    O12    C4        1.27284  1_554   S
    C8     O21       1.27537  1_554   S
    C8     O20       1.27284  1_554   S
    O13    Zn3       2.05533      .   S
    O13    C4        1.27534  1_554   S
    O16    C7        1.27282      .   S
    O16    Zn3       2.11513  1_545   S
    O17    Zn0       2.02139      .   S
    O17    C6        1.27791      .   S
    C7     O19       1.27575      .   S
    Zn0    O19       2.04632  1_565   S
    Zn0    O14       2.10618      .   S
    Zn3    O18       2.08986      .   S
    Zn3    O15       2.06626      .   S
    C6     O18       1.27013      .   S
    O15    C5        1.27678      .   S
    O14    C5        1.27147      .   S
    C9     O22       1.27148      .   S
    C9     O23       1.27677      .   S
    O22    Zn2       2.10616      .   S
    O23    Zn1       2.06628      .   S
    O26    C10       1.27013      .   S
    O26    Zn1       2.08987      .   S
    C10    O25       1.27792      .   S
    O27    Zn2       2.04635  1_565   S
    O27    C11       1.27575      .   S
    Zn1    O24       2.11513  1_545   S
    Zn1    O21       2.05533      .   S
    Zn2    O25       2.02141      .   S
    Zn2    O20       2.13753      .   S
    C11    O24       1.27283      .   S
    Zn3    Zn0       2.83742      .   S
    Zn1    Zn2       2.83752      .   S
