# CIF file generated by openbabel 2.4.90, see http://openbabel.sf.net
data_I
_chemical_name_common ''
_cell_length_a 14.017
_cell_length_b 15.199
_cell_length_c 15.249
_cell_angle_alpha 85.04
_cell_angle_beta 87.603
_cell_angle_gamma 83.928
_space_group_name_H-M_alt 'P 1'
_space_group_name_Hall 'P 1'
loop_
    _symmetry_equiv_pos_as_xyz
    x,y,z
loop_
    _atom_site_label
    _atom_site_type_symbol
    _atom_site_fract_x
    _atom_site_fract_y
    _atom_site_fract_z
    _atom_site_occupancy
    N0      N    0.80900   0.11260   0.34113   1.000
    N1      N    0.23356   0.38896   0.16107   1.000
    N2      N    0.71212   0.88615   0.15713   1.000
    N3      N    0.28795   0.11382   0.84287   1.000
    N4      N    0.19106   0.88737   0.65887   1.000
    N5      N    0.76650   0.61100   0.83892   1.000
    Zr6     Zr   0.78826   0.10841   0.84261   1.000
    O7      O    0.79235   0.10961   0.02268   1.000
    O8      O    0.61946   0.11285   0.84328   1.000
    O9      O    0.78385   0.92872   0.84202   1.000
    O10     O    0.78120   0.28949   0.84032   1.000
    O11     O    0.95711   0.10775   0.84221   1.000
    O12     O    0.79483   0.11057   0.66178   1.000
    Zr13    Zr   0.21181   0.89156   0.15739   1.000
    O14     O    0.21621   0.07125   0.15798   1.000
    O15     O    0.04296   0.89221   0.15779   1.000
    O16     O    0.20773   0.89036   0.97732   1.000
    O17     O    0.20523   0.88940   0.33822   1.000
    O18     O    0.38061   0.88712   0.15672   1.000
    O19     O    0.21885   0.71048   0.15967   1.000
loop_
    _geom_bond_atom_site_label_1
    _geom_bond_atom_site_label_2
    _geom_bond_distance
    _geom_bond_site_symmetry_2
    _ccdc_geom_bond_type
    Zr6    O7        2.75066  1_556   S
    N0     O7        4.87573      .   S
    Zr6    O8        2.35953      .   S
    N3     O8        4.64545      .   S
    Zr6    O9        2.73912  1_545   S
    N5     O9        4.86506      .   S
    Zr6    O10       2.74085      .   S
    N5     O10       4.86743      .   S
    Zr6    O11       2.36553      .   S
    N3     O11       4.64848  1_455   S
    Zr6    O12       2.75261      .   S
    N0     O12       4.88281      .   S
    Zr13   O14       2.73912  1_565   S
    N1     O14       4.86506      .   S
    Zr13   O15       2.36555      .   S
    N2     O15       4.64847  1_655   S
    Zr13   O16       2.75065  1_554   S
    N4     O16       4.87571      .   S
    Zr13   O17       2.75263      .   S
    N4     O17       4.88283      .   S
    Zr13   O18       2.35949      .   S
    N2     O18       4.64548      .   S
    Zr13   O19       2.74084      .   S
    N1     O19       4.86741      .   S
