# CIF file generated by openbabel 2.4.90, see http://openbabel.sf.net
data_I
_chemical_name_common ''
_cell_length_a 14.017
_cell_length_b 15.199
_cell_length_c 15.249
_cell_angle_alpha 85.04
_cell_angle_beta 87.603
_cell_angle_gamma 83.928
_space_group_name_H-M_alt 'P 1'
_space_group_name_Hall 'P 1'
loop_
    _symmetry_equiv_pos_as_xyz
    x,y,z
loop_
    _atom_site_label
    _atom_site_type_symbol
    _atom_site_fract_x
    _atom_site_fract_y
    _atom_site_fract_z
    _atom_site_occupancy
    Zr0     Zr   0.10917   0.90032   0.15991   1.000
    Zr1     Zr   0.31284   0.88119   0.15500   1.000
    Zr2     Zr   0.89089   0.09964   0.84009   1.000
    Zr3     Zr   0.68721   0.11877   0.84499   1.000
    Zr4     Zr   0.21851   0.89403   0.98422   1.000
    Zr5     Zr   0.20764   0.88709   0.33003   1.000
    Zr6     Zr   0.21673   0.71920   0.16307   1.000
    Zr7     Zr   0.20484   0.06418   0.15393   1.000
    Zr8     Zr   0.78163   0.10593   0.01578   1.000
    Zr9     Zr   0.79240   0.11289   0.66998   1.000
    Zr10    Zr   0.78331   0.28077   0.83693   1.000
    Zr11    Zr   0.79522   0.93579   0.84607   1.000
    Zr12    Zr   0.29898   0.90418   0.01561   1.000
    Zr13    Zr   0.13953   0.88891   0.02810   1.000
    Zr14    Zr   0.28783   0.86387   0.29226   1.000
    Zr15    Zr   0.12858   0.91118   0.29197   1.000
    Zr16    Zr   0.12378   0.03781   0.14089   1.000
    Zr17    Zr   0.29589   0.75222   0.14400   1.000
    Zr18    Zr   0.13696   0.76250   0.18157   1.000
    Zr19    Zr   0.28407   0.01515   0.16295   1.000
    Zr20    Zr   0.70116   0.09578   0.98437   1.000
    Zr21    Zr   0.86062   0.11105   0.97192   1.000
    Zr22    Zr   0.71221   0.13610   0.70774   1.000
    Zr23    Zr   0.87146   0.08879   0.70803   1.000
    Zr24    Zr   0.87628   0.96215   0.85911   1.000
    Zr25    Zr   0.70415   0.24775   0.85600   1.000
    Zr26    Zr   0.86308   0.23746   0.81844   1.000
    Zr27    Zr   0.71599   0.98482   0.83705   1.000
    O28     O    0.30591   0.89268   0.08531   1.000
    O29     O    0.25875   0.89910   0.99992   1.000
    O30     O    0.82112   0.10849   0.99385   1.000
    O31     O    0.74140   0.10085   0.00007   1.000
    O32     O    0.12435   0.89462   0.09400   1.000
    O33     O    0.17902   0.89147   0.00616   1.000
    O34     O    0.16431   0.05100   0.14741   1.000
    O35     O    0.11647   0.96907   0.15040   1.000
    O36     O    0.30436   0.81670   0.14950   1.000
    O37     O    0.25631   0.73571   0.15354   1.000
    O38     O    0.24445   0.03966   0.15844   1.000
    O39     O    0.29846   0.94817   0.15897   1.000
    O40     O    0.30034   0.87253   0.22363   1.000
    O41     O    0.12306   0.83141   0.17074   1.000
    O42     O    0.11887   0.90575   0.22594   1.000
    O43     O    0.17684   0.74085   0.17232   1.000
    O44     O    0.16811   0.89913   0.31100   1.000
    O45     O    0.24774   0.87548   0.31114   1.000
    O46     O    0.75230   0.12450   0.68886   1.000
    O47     O    0.83193   0.10084   0.68901   1.000
    O48     O    0.69971   0.12744   0.77636   1.000
    O49     O    0.88118   0.09422   0.77406   1.000
    O50     O    0.82319   0.25912   0.82769   1.000
    O51     O    0.87699   0.16855   0.82927   1.000
    O52     O    0.74373   0.26426   0.84647   1.000
    O53     O    0.70160   0.05180   0.84102   1.000
    O54     O    0.75561   0.96030   0.84156   1.000
    O55     O    0.88359   0.03090   0.84960   1.000
    O56     O    0.87576   0.10534   0.90601   1.000
    O57     O    0.69568   0.18326   0.85050   1.000
    O58     O    0.69419   0.10727   0.91468   1.000
    O59     O    0.83575   0.94897   0.85259   1.000
    O60     O    0.21100   0.89076   0.15746   1.000
    O61     O    0.78905   0.10921   0.84254   1.000
    N62     N    0.80900   0.11260   0.34113   1.000
    O63     O    0.80141   0.11274   0.48095   1.000
    O64     O    0.79645   0.11081   0.20276   1.000
    N65     N    0.23356   0.38896   0.16107   1.000
    O66     O    0.22061   0.25094   0.15857   1.000
    O67     O    0.22590   0.52939   0.16195   1.000
    N68     N    0.71212   0.88615   0.15713   1.000
    O69     O    0.87410   0.89287   0.15819   1.000
    O70     O    0.54941   0.88267   0.15604   1.000
    N71     N    0.28795   0.11382   0.84287   1.000
    O72     O    0.45065   0.11730   0.84396   1.000
    O73     O    0.12596   0.10710   0.84181   1.000
    N74     N    0.19106   0.88737   0.65887   1.000
    O75     O    0.19865   0.88724   0.51905   1.000
    O76     O    0.20364   0.88916   0.79724   1.000
    N77     N    0.76650   0.61100   0.83892   1.000
    O78     O    0.77415   0.47057   0.83804   1.000
    O79     O    0.77945   0.74903   0.84143   1.000
loop_
    _geom_bond_atom_site_label_1
    _geom_bond_atom_site_label_2
    _geom_bond_distance
    _geom_bond_site_symmetry_2
    _ccdc_geom_bond_type
    Zr12   O28       1.06884      .   S
    Zr1    O28       1.06884      .   S
    Zr12   O29       0.63642  1_554   S
    Zr4    O29       0.63642      .   S
    Zr8    O30       0.63768  1_554   S
    Zr21   O30       0.63768      .   S
    Zr8    O31       0.63642      .   S
    Zr20   O31       0.63642  1_556   S
    Zr13   O32       1.02767      .   S
    Zr0    O32       1.02767      .   S
    Zr13   O33       0.63767      .   S
    Zr4    O33       0.63767  1_556   S
    Zr16   O34       0.63641      .   S
    Zr7    O34       0.63641      .   S
    Zr16   O35       1.05757  1_545   S
    Zr0    O35       1.05757      .   S
    Zr17   O36       1.01069      .   S
    Zr1    O36       1.01069      .   S
    Zr17   O37       0.63896      .   S
    Zr6    O37       0.63896      .   S
    Zr7    O38       0.63788      .   S
    Zr19   O38       0.63788      .   S
    Zr1    O39       1.02316      .   S
    Zr19   O39       1.02316  1_545   S
    Zr1    O40       1.05309      .   S
    Zr14   O40       1.05309      .   S
    Zr0    O41       1.04493      .   S
    Zr18   O41       1.04493      .   S
    Zr0    O42       1.03313      .   S
    Zr15   O42       1.03313      .   S
    Zr6    O43       0.63506      .   S
    Zr18   O43       0.63506      .   S
    Zr15   O44       0.63839      .   S
    Zr5    O44       0.63839      .   S
    Zr14   O45       0.63573      .   S
    Zr5    O45       0.63573      .   S
    Zr9    O46       0.63574      .   S
    Zr22   O46       0.63574      .   S
    Zr9    O47       0.63838      .   S
    Zr23   O47       0.63838      .   S
    Zr22   O48       1.05308      .   S
    Zr3    O48       1.05308      .   S
    Zr23   O49       1.03314      .   S
    Zr2    O49       1.03314      .   S
    Zr26   O50       0.63507      .   S
    Zr10   O50       0.63507      .   S
    Zr26   O51       1.04493      .   S
    Zr2    O51       1.04493      .   S
    Zr10   O52       0.63896      .   S
    Zr25   O52       0.63896      .   S
    Zr27   O53       1.02317  1_565   S
    Zr3    O53       1.02317      .   S
    Zr27   O54       0.63787      .   S
    Zr11   O54       0.63787      .   S
    Zr2    O55       1.05757      .   S
    Zr24   O55       1.05757  1_565   S
    Zr2    O56       1.02766      .   S
    Zr21   O56       1.02766      .   S
    Zr3    O57       1.01070      .   S
    Zr25   O57       1.01070      .   S
    Zr3    O58       1.06877      .   S
    Zr20   O58       1.06877      .   S
    Zr11   O59       0.63641      .   S
    Zr24   O59       0.63641      .   S
    Zr0    O60       1.41871      .   S
    Zr1    O60       1.41871      .   S
    Zr2    O61       1.41876      .   S
    Zr3    O61       1.41876      .   S
    N62    O63       2.13043      .   S
    Zr9    O63       2.88017      .   S
    N62    O64       2.12743      .   S
    Zr8    O64       2.87542      .   S
    N65    O66       2.12845      .   S
    Zr7    O66       2.87750      .   S
    N65    O67       2.12690      .   S
    Zr6    O67       2.87555      .   S
    N68    O69       2.28439      .   S
    Zr0    O69       3.31006  1_455   S
    N68    O70       2.28766      .   S
    Zr1    O70       3.31916      .   S
    N71    O72       2.28759      .   S
    Zr3    O72       3.31899      .   S
    N71    O73       2.28442      .   S
    Zr2    O73       3.31016  1_655   S
    N74    O75       2.13043      .   S
    Zr5    O75       2.88016      .   S
    N74    O76       2.12744      .   S
    Zr4    O76       2.87543      .   S
    N77    O78       2.12690      .   S
    Zr10   O78       2.87555      .   S
    N77    O79       2.12845      .   S
    Zr11   O79       2.87750      .   S
