# CIF file generated by openbabel 2.4.90, see http://openbabel.sf.net
data_I
_chemical_name_common ''
_cell_length_a 16.171
_cell_length_b 16.186
_cell_length_c 26.823
_cell_angle_alpha 84.506
_cell_angle_beta 84.475
_cell_angle_gamma 84.441
_space_group_name_H-M_alt 'P 1'
_space_group_name_Hall 'P 1'
loop_
    _symmetry_equiv_pos_as_xyz
    x,y,z
loop_
    _atom_site_label
    _atom_site_type_symbol
    _atom_site_fract_x
    _atom_site_fract_y
    _atom_site_fract_z
    _atom_site_occupancy
    Zn0     Zn   0.89549   0.31560   0.47090   1.000
    Zn1     Zn   0.32666   0.72555   0.99186   1.000
    Zn2     Zn   0.31368   0.89881   0.97064   1.000
    Zn3     Zn   0.67335   0.27443   0.00816   1.000
    Zn4     Zn   0.68620   0.10118   0.02937   1.000
    Zn5     Zn   0.27785   0.67297   0.50660   1.000
    Zn6     Zn   0.10453   0.68440   0.52911   1.000
    H7      H    0.66693   0.56180   0.38607   1.000
    H8      H    0.66942   0.69558   0.33299   1.000
    H9      H    0.93698   0.68166   0.33511   1.000
    H10     H    0.93255   0.54595   0.38774   1.000
    H11     H    0.69721   0.83849   0.29936   1.000
    H12     H    0.71424   0.75634   0.25817   1.000
    H13     H    0.64909   0.92698   0.22152   1.000
    H14     H    0.72096   0.94051   0.16680   1.000
    H15     H    0.62081   0.69133   0.15960   1.000
    H16     H    0.50439   0.68248   0.10565   1.000
    H17     H    0.46888   0.94873   0.08723   1.000
    H18     H    0.58317   0.95986   0.14090   1.000
    H19     H    0.85668   0.91616   0.27674   1.000
    H20     H    0.83785   0.98187   0.22052   1.000
    H21     H    0.63237   0.08401   0.32284   1.000
    H22     H    0.65733   0.19248   0.37893   1.000
    H23     H    0.92107   0.13650   0.35089   1.000
    H24     H    0.89820   0.02912   0.29504   1.000
    H25     H    0.89962   0.80450   0.22080   1.000
    H26     H    0.82554   0.76798   0.18452   1.000
    H27     H    0.96911   0.73257   0.15800   1.000
    H28     H    0.10227   0.71032   0.10452   1.000
    H29     H    0.07259   0.96237   0.03906   1.000
    H30     H    0.93759   0.98607   0.09148   1.000
    H31     H    0.01563   0.41421   0.50860   1.000
    Zn32    Zn   0.72217   0.32703   0.49341   1.000
    H33     H    0.16798   0.40991   0.51447   1.000
    H34     H    0.19500   0.18859   0.43310   1.000
    H35     H    0.04065   0.20395   0.43015   1.000
    H36     H    0.31848   0.23599   0.45907   1.000
    H37     H    0.29752   0.39802   0.51285   1.000
    H38     H    0.44877   0.22144   0.45976   1.000
    H39     H    0.60202   0.22174   0.46278   1.000
    H40     H    0.57523   0.43552   0.53765   1.000
    H41     H    0.41914   0.44699   0.53672   1.000
    H42     H    0.56184   0.67060   0.88745   1.000
    H43     H    0.69629   0.67219   0.83471   1.000
    H44     H    0.67986   0.94021   0.83274   1.000
    H45     H    0.54355   0.93662   0.88497   1.000
    H46     H    0.83862   0.69980   0.79960   1.000
    H47     H    0.75560   0.71546   0.75899   1.000
    H48     H    0.92557   0.65044   0.72136   1.000
    H49     H    0.93835   0.72163   0.66638   1.000
    H50     H    0.68925   0.62263   0.65907   1.000
    H51     H    0.68069   0.50578   0.60538   1.000
    H52     H    0.94721   0.46777   0.58919   1.000
    H53     H    0.95798   0.58251   0.64260   1.000
    H54     H    0.91579   0.85868   0.77544   1.000
    H55     H    0.98049   0.83942   0.71887   1.000
    H56     H    0.08531   0.63536   0.82077   1.000
    H57     H    0.19339   0.66096   0.87695   1.000
    H58     H    0.13489   0.92423   0.84973   1.000
    H59     H    0.02782   0.90071   0.79383   1.000
    H60     H    0.80243   0.90048   0.72035   1.000
    H61     H    0.76565   0.82575   0.68461   1.000
    H62     H    0.72968   0.96910   0.65751   1.000
    H63     H    0.70735   0.10254   0.60436   1.000
    H64     H    0.96001   0.07410   0.53932   1.000
    H65     H    0.98384   0.93884   0.59142   1.000
    H66     H    0.41155   0.01821   0.01010   1.000
    H67     H    0.40786   0.17051   0.01580   1.000
    H68     H    0.18883   0.19852   0.93234   1.000
    H69     H    0.20336   0.04431   0.92965   1.000
    H70     H    0.23614   0.32147   0.95856   1.000
    H71     H    0.39819   0.30082   0.01239   1.000
    H72     H    0.22426   0.45155   0.95600   1.000
    H73     H    0.22381   0.60474   0.95880   1.000
    H74     H    0.43332   0.57915   0.03767   1.000
    H75     H    0.44528   0.42315   0.03735   1.000
    H76     H    0.43809   0.32938   0.11257   1.000
    H77     H    0.30359   0.32781   0.16527   1.000
    H78     H    0.32006   0.05978   0.16730   1.000
    H79     H    0.45640   0.06336   0.11510   1.000
    H80     H    0.16126   0.30022   0.20042   1.000
    H81     H    0.24433   0.28452   0.24100   1.000
    H82     H    0.07437   0.34955   0.27867   1.000
    H83     H    0.06164   0.27836   0.33365   1.000
    H84     H    0.31074   0.37734   0.34094   1.000
    H85     H    0.31932   0.49419   0.39463   1.000
    H86     H    0.05279   0.53222   0.41080   1.000
    H87     H    0.04201   0.41748   0.35739   1.000
    H88     H    0.08413   0.14128   0.22462   1.000
    H89     H    0.01944   0.16057   0.28119   1.000
    H90     H    0.91462   0.36460   0.17926   1.000
    H91     H    0.80657   0.33898   0.12306   1.000
    H92     H    0.86510   0.07572   0.15028   1.000
    H93     H    0.97214   0.09925   0.20619   1.000
    H94     H    0.19753   0.09952   0.27966   1.000
    H95     H    0.23434   0.17425   0.31538   1.000
    H96     H    0.27032   0.03090   0.34249   1.000
    H97     H    0.29267   0.89745   0.39564   1.000
    H98     H    0.04002   0.92589   0.46070   1.000
    H99     H    0.01618   0.06115   0.40861   1.000
    C100    C    0.82337   0.61008   0.65391   1.000
    C101    C    0.74536   0.58755   0.64373   1.000
    C102    C    0.74083   0.52289   0.61406   1.000
    C103    C    0.81377   0.47955   0.59369   1.000
    H104    H    0.58835   0.98174   0.98990   1.000
    H105    H    0.59207   0.82945   0.98419   1.000
    H106    H    0.81117   0.80150   0.06766   1.000
    H107    H    0.79660   0.95572   0.07034   1.000
    H108    H    0.76385   0.67853   0.04146   1.000
    H109    H    0.60181   0.69915   0.98763   1.000
    H110    H    0.77574   0.54844   0.04396   1.000
    H111    H    0.77619   0.39524   0.04110   1.000
    H112    H    0.56667   0.42082   0.96236   1.000
    H113    H    0.55472   0.57682   0.96267   1.000
    H114    H    0.33307   0.43817   0.61390   1.000
    H115    H    0.33054   0.30439   0.66700   1.000
    H116    H    0.06299   0.31835   0.66485   1.000
    H117    H    0.06745   0.45406   0.61220   1.000
    H118    H    0.30272   0.16151   0.70064   1.000
    H119    H    0.28573   0.24368   0.74181   1.000
    H120    H    0.35088   0.07306   0.77849   1.000
    H121    H    0.27902   0.05957   0.83315   1.000
    H122    H    0.37922   0.30873   0.84036   1.000
    H123    H    0.49561   0.31755   0.89436   1.000
    H124    H    0.53101   0.05129   0.91282   1.000
    H125    H    0.41675   0.04020   0.85905   1.000
    H126    H    0.14329   0.08383   0.72329   1.000
    H127    H    0.16212   0.01816   0.77952   1.000
    H128    H    0.36761   0.91602   0.67718   1.000
    H129    H    0.34266   0.80757   0.62108   1.000
    H130    H    0.07891   0.86349   0.64914   1.000
    H131    H    0.10177   0.97085   0.70501   1.000
    C132    C    0.87623   0.13900   0.15669   1.000
    C133    C    0.93671   0.15243   0.18811   1.000
    C134    C    0.76961   0.19128   0.09550   1.000
    C135    C    0.17844   0.15256   0.30217   1.000
    C136    C    0.14121   0.05422   0.37210   1.000
    H137    H    0.10035   0.19553   0.77915   1.000
    H138    H    0.17442   0.23206   0.81548   1.000
    H139    H    0.03084   0.26744   0.84196   1.000
    H140    H    0.89768   0.28967   0.89550   1.000
    H141    H    0.92737   0.03758   0.96092   1.000
    H142    H    0.06237   0.01392   0.90850   1.000
    H143    H    0.98439   0.58578   0.49134   1.000
    H144    H    0.83204   0.59007   0.48555   1.000
    H145    H    0.80501   0.81138   0.56692   1.000
    H146    H    0.95937   0.79603   0.56987   1.000
    H147    H    0.68154   0.76399   0.54095   1.000
    H148    H    0.70250   0.60197   0.48710   1.000
    H149    H    0.55125   0.77855   0.54025   1.000
    H150    H    0.39801   0.77826   0.53724   1.000
    H151    H    0.42478   0.56448   0.46237   1.000
    H152    H    0.58087   0.55300   0.46329   1.000
    C153    C    0.79902   0.46436   0.42339   1.000
    C154    C    0.79950   0.54503   0.39073   1.000
    C155    C    0.72605   0.58822   0.37490   1.000
    C156    C    0.72756   0.66348   0.34474   1.000
    C157    C    0.80406   0.69679   0.33020   1.000
    C158    C    0.87809   0.65475   0.34600   1.000
    C159    C    0.87539   0.57967   0.37578   1.000
    C160    C    0.74361   0.80552   0.27360   1.000
    C161    C    0.77485   0.86764   0.23048   1.000
    C162    C    0.70129   0.89645   0.19860   1.000
    C163    C    0.60948   0.82537   0.15344   1.000
    C164    C    0.58637   0.74737   0.14374   1.000
    C165    C    0.52192   0.74267   0.11389   1.000
    C166    C    0.47931   0.81544   0.09284   1.000
    C167    C    0.50171   0.89259   0.10398   1.000
    C168    C    0.56595   0.89874   0.13425   1.000
    C169    C    0.41588   0.81044   0.05643   1.000
    C170    C    0.80903   0.94137   0.25128   1.000
    C171    C    0.76306   0.04856   0.30627   1.000
    C172    C    0.69540   0.09583   0.32957   1.000
    C173    C    0.70952   0.15579   0.36062   1.000
    C174    C    0.79099   0.17065   0.36920   1.000
    C175    C    0.85785   0.12471   0.34465   1.000
    C176    C    0.84479   0.06406   0.31329   1.000
    C177    C    0.80506   0.23132   0.40561   1.000
    C178    C    0.84675   0.82370   0.19819   1.000
    C179    C    0.94519   0.86141   0.12833   1.000
    C180    C    0.99087   0.78322   0.13194   1.000
    C181    C    0.06579   0.77057   0.10192   1.000
    C182    C    0.09622   0.83478   0.06863   1.000
    C183    C    0.04888   0.91237   0.06495   1.000
    C184    C    0.97395   0.92572   0.09400   1.000
    C185    C    0.17832   0.82291   0.03790   1.000
    C186    C    0.05838   0.36604   0.49216   1.000
    C187    C    0.14344   0.36260   0.49534   1.000
    C188    C    0.19587   0.29829   0.47410   1.000
    C189    C    0.15783   0.24000   0.45025   1.000
    C190    C    0.07203   0.24778   0.44842   1.000
    C191    C    0.28586   0.29019   0.47599   1.000
    C192    C    0.32979   0.34343   0.49628   1.000
    C193    C    0.41989   0.33553   0.49773   1.000
    C194    C    0.47323   0.27079   0.47731   1.000
    C195    C    0.55855   0.26981   0.47892   1.000
    C196    C    0.54378   0.39016   0.52062   1.000
    C197    C    0.45764   0.39572   0.52021   1.000
    C198    C    0.46296   0.80329   0.92245   1.000
    C199    C    0.54388   0.80344   0.88999   1.000
    C200    C    0.58790   0.72959   0.87543   1.000
    C201    C    0.66348   0.73059   0.84549   1.000
    C202    C    0.69620   0.80698   0.82991   1.000
    C203    C    0.65335   0.88142   0.84485   1.000
    C204    C    0.57795   0.87919   0.87403   1.000
    C205    C    0.80501   0.74547   0.77380   1.000
    C206    C    0.86631   0.77618   0.73007   1.000
    C207    C    0.89466   0.70231   0.69845   1.000
    C208    C    0.89093   0.50131   0.60530   1.000
    C209    C    0.89688   0.56579   0.63542   1.000
    C210    C    0.80881   0.41608   0.55736   1.000
    C211    C    0.94059   0.81082   0.75004   1.000
    C212    C    0.04846   0.76573   0.80472   1.000
    C213    C    0.09647   0.69841   0.82773   1.000
    C214    C    0.15622   0.71291   0.85883   1.000
    C215    C    0.17019   0.79442   0.86774   1.000
    C216    C    0.12375   0.86096   0.84332   1.000
    C217    C    0.06324   0.84752   0.81191   1.000
    C218    C    0.23036   0.80868   0.90443   1.000
    C219    C    0.82154   0.84744   0.69780   1.000
    C220    C    0.85880   0.94578   0.62792   1.000
    C221    C    0.78042   0.99120   0.63157   1.000
    C222    C    0.76774   0.06624   0.60178   1.000
    C223    C    0.83209   0.09700   0.56868   1.000
    C224    C    0.90991   0.05002   0.56502   1.000
    C225    C    0.92331   0.97496   0.59394   1.000
    C226    C    0.81993   0.17914   0.53822   1.000
    C227    C    0.36403   0.06116   0.99318   1.000
    C228    C    0.36101   0.14617   0.99624   1.000
    C229    C    0.29766   0.19887   0.97423   1.000
    C230    C    0.23960   0.16113   0.95000   1.000
    C231    C    0.24693   0.07539   0.94830   1.000
    C232    C    0.29022   0.28887   0.97564   1.000
    C233    C    0.34373   0.33297   0.99558   1.000
    C234    C    0.33595   0.42313   0.99643   1.000
    C235    C    0.27238   0.47621   0.97461   1.000
    C236    C    0.27105   0.56153   0.97600   1.000
    C237    C    0.38903   0.54741   0.01990   1.000
    C238    C    0.39481   0.46129   0.01981   1.000
    C239    C    0.53700   0.19667   0.07760   1.000
    C240    C    0.45607   0.19653   0.11006   1.000
    C241    C    0.41202   0.27039   0.12460   1.000
    C242    C    0.33642   0.26940   0.15450   1.000
    C243    C    0.30370   0.19301   0.17009   1.000
    C244    C    0.34657   0.11856   0.15518   1.000
    C245    C    0.42199   0.12079   0.12602   1.000
    C246    C    0.19489   0.25453   0.22614   1.000
    C247    C    0.13363   0.22381   0.26995   1.000
    C248    C    0.10530   0.29768   0.30150   1.000
    C249    C    0.17662   0.38991   0.34611   1.000
    C250    C    0.25463   0.41243   0.35629   1.000
    C251    C    0.25917   0.47708   0.38595   1.000
    C252    C    0.18624   0.52044   0.40633   1.000
    C253    C    0.10907   0.49867   0.39400   1.000
    C254    C    0.10311   0.43420   0.36460   1.000
    C255    C    0.19120   0.58391   0.44265   1.000
    C256    C    0.05934   0.18916   0.25000   1.000
    C257    C    0.95148   0.23423   0.19531   1.000
    C258    C    0.90347   0.30154   0.17230   1.000
    C259    C    0.84374   0.28704   0.14119   1.000
    C260    C    0.82978   0.20553   0.13228   1.000
    C261    C    0.21959   0.00880   0.36844   1.000
    C262    C    0.23228   0.93376   0.39823   1.000
    C263    C    0.16793   0.90300   0.43133   1.000
    C264    C    0.09011   0.94997   0.43500   1.000
    C265    C    0.07671   0.02504   0.40608   1.000
    C266    C    0.18010   0.82085   0.46179   1.000
    C267    C    0.63590   0.93881   0.00685   1.000
    C268    C    0.63894   0.85380   0.00379   1.000
    C269    C    0.70231   0.80112   0.02579   1.000
    C270    C    0.76038   0.83888   0.05000   1.000
    C271    C    0.75303   0.92462   0.05168   1.000
    C272    C    0.70977   0.71111   0.02438   1.000
    C273    C    0.65626   0.66701   0.00444   1.000
    C274    C    0.66405   0.57685   0.00358   1.000
    C275    C    0.72762   0.52377   0.02541   1.000
    C276    C    0.72895   0.43845   0.02402   1.000
    C277    C    0.61097   0.45256   0.98012   1.000
    C278    C    0.60519   0.53869   0.98022   1.000
    C279    C    0.20100   0.53565   0.57661   1.000
    C280    C    0.20050   0.45497   0.60920   1.000
    C281    C    0.27394   0.41176   0.62509   1.000
    C282    C    0.27241   0.33650   0.65525   1.000
    C283    C    0.19591   0.30321   0.66978   1.000
    C284    C    0.12188   0.34526   0.65358   1.000
    C285    C    0.12460   0.42034   0.62419   1.000
    C286    C    0.25634   0.19450   0.72631   1.000
    C287    C    0.22512   0.13240   0.76953   1.000
    C288    C    0.29868   0.10361   0.80138   1.000
    C289    C    0.39049   0.17469   0.84650   1.000
    C290    C    0.41363   0.25268   0.85626   1.000
    C291    C    0.47807   0.25736   0.88612   1.000
    C292    C    0.52064   0.18459   0.90719   1.000
    C293    C    0.49821   0.10744   0.89606   1.000
    C294    C    0.43398   0.10131   0.86577   1.000
    C295    C    0.58407   0.18957   0.94360   1.000
    C296    C    0.19094   0.05864   0.74875   1.000
    C297    C    0.23691   0.95145   0.69376   1.000
    C298    C    0.30458   0.90419   0.67045   1.000
    C299    C    0.29046   0.84425   0.63939   1.000
    C300    C    0.20900   0.82937   0.63082   1.000
    C301    C    0.14213   0.87529   0.65538   1.000
    C302    C    0.15518   0.93594   0.68675   1.000
    C303    C    0.19495   0.76872   0.59439   1.000
    C304    C    0.15322   0.17634   0.80182   1.000
    C305    C    0.05477   0.13859   0.87167   1.000
    C306    C    0.00909   0.21678   0.86807   1.000
    C307    C    0.93416   0.22941   0.89809   1.000
    C308    C    0.90374   0.16519   0.93137   1.000
    C309    C    0.95108   0.08760   0.93503   1.000
    C310    C    0.02601   0.07427   0.90590   1.000
    C311    C    0.82164   0.17706   0.96208   1.000
    C312    C    0.94165   0.63395   0.50785   1.000
    C313    C    0.85659   0.63739   0.50467   1.000
    C314    C    0.80415   0.70169   0.52591   1.000
    C315    C    0.84219   0.75999   0.54976   1.000
    C316    C    0.92799   0.75220   0.55160   1.000
    C317    C    0.71416   0.70979   0.52402   1.000
    C318    C    0.67023   0.65656   0.50373   1.000
    C319    C    0.58013   0.66446   0.50229   1.000
    C320    C    0.52679   0.72920   0.52270   1.000
    C321    C    0.44147   0.73019   0.52110   1.000
    C322    C    0.45624   0.60983   0.47940   1.000
    C323    C    0.54237   0.60428   0.47980   1.000
    N324    N    0.59395   0.32891   0.49970   1.000
    N325    N    0.02272   0.30993   0.46900   1.000
    N326    N    0.32875   0.59726   0.99792   1.000
    N327    N    0.30833   0.02584   0.96948   1.000
    N328    N    0.67124   0.40272   0.00211   1.000
    N329    N    0.69160   0.97415   0.03054   1.000
    N330    N    0.40607   0.67109   0.50020   1.000
    N331    N    0.97730   0.69007   0.53101   1.000
    O332    O    0.72956   0.44163   0.44376   1.000
    O333    O    0.87073   0.42536   0.42896   1.000
    O334    O    0.81329   0.76935   0.30014   1.000
    O335    O    0.67669   0.82196   0.18109   1.000
    O336    O    0.39897   0.73747   0.04844   1.000
    O337    O    0.38509   0.87832   0.03481   1.000
    O338    O    0.74237   0.98842   0.27807   1.000
    O339    O    0.87947   0.24712   0.41009   1.000
    O340    O    0.73977   0.26198   0.43066   1.000
    O341    O    0.87162   0.88135   0.15655   1.000
    O342    O    0.21537   0.74989   0.03737   1.000
    O343    O    0.20496   0.88883   0.01444   1.000
    O344    O    0.44073   0.73386   0.94312   1.000
    O345    O    0.42333   0.87475   0.92758   1.000
    O346    O    0.76897   0.81565   0.79991   1.000
    O347    O    0.81987   0.67740   0.68141   1.000
    O348    O    0.73570   0.39905   0.54958   1.000
    O349    O    0.87667   0.38547   0.53558   1.000
    O350    O    0.98834   0.74457   0.77666   1.000
    O351    O    0.24600   0.88300   0.90910   1.000
    O352    O    0.26077   0.74338   0.92953   1.000
    O353    O    0.87866   0.87204   0.65587   1.000
    O354    O    0.74649   0.21548   0.53774   1.000
    O355    O    0.88562   0.20654   0.51488   1.000
    O356    O    0.55926   0.26610   0.05695   1.000
    O357    O    0.57661   0.12521   0.07240   1.000
    O358    O    0.23089   0.18436   0.20007   1.000
    O359    O    0.18011   0.32259   0.31800   1.000
    O360    O    0.26431   0.60093   0.45043   1.000
    O361    O    0.12335   0.61453   0.46443   1.000
    O362    O    0.01158   0.25539   0.22338   1.000
    O363    O    0.75396   0.11697   0.09090   1.000
    O364    O    0.73924   0.25659   0.07047   1.000
    O365    O    0.12134   0.12795   0.34415   1.000
    O366    O    0.25353   0.78450   0.46225   1.000
    O367    O    0.11441   0.79347   0.48513   1.000
    O368    O    0.27046   0.55839   0.55626   1.000
    O369    O    0.12929   0.57466   0.57104   1.000
    O370    O    0.18665   0.23067   0.69986   1.000
    O371    O    0.32329   0.17811   0.81890   1.000
    O372    O    0.60098   0.26253   0.95161   1.000
    O373    O    0.61488   0.12167   0.96520   1.000
    O374    O    0.25760   0.01158   0.72197   1.000
    O375    O    0.12054   0.75288   0.58993   1.000
    O376    O    0.26023   0.73813   0.56932   1.000
    O377    O    0.12835   0.11868   0.84346   1.000
    O378    O    0.78461   0.25010   0.96264   1.000
    O379    O    0.79500   0.11115   0.98558   1.000
loop_
    _geom_bond_atom_site_label_1
    _geom_bond_atom_site_label_2
    _geom_bond_distance
    _geom_bond_site_symmetry_2
    _ccdc_geom_bond_type
    N328   Zn3       2.06440      .   S
    N328   C276      1.35127      .   S
    N328   C277      1.34763  1_554   S
    C274   C273      1.45477      .   S
    C274   C275      1.40927      .   S
    C274   C278      1.40820  1_554   S
    C268   C267      1.38210      .   S
    C268   C269      1.40588      .   S
    C268   H105      1.08645  1_554   S
    C273   C272      1.35144      .   S
    C273   H109      1.09182  1_554   S
    C267   N329      1.34984      .   S
    C267   H104      1.08809  1_554   S
    Zn3    O356      2.16428      .   S
    Zn3    O364      2.05011      .   S
    Zn3    O372      2.03684  1_554   S
    Zn3    O378      2.10121  1_554   S
    H66    C227      1.08762  1_554   S
    H71    C233      1.09183  1_554   S
    O343   C185      1.27607      .   S
    O343   Zn2       2.02933  1_554   S
    H67    C228      1.08560  1_554   S
    C238   C237      1.38835      .   S
    C238   H75       1.09050      .   S
    C238   C234      1.40841  1_554   S
    C237   H74       1.08999      .   S
    C237   N326      1.34755  1_554   S
    C276   C275      1.38305      .   S
    C276   H111      1.08861      .   S
    C272   C269      1.45392      .   S
    C272   H108      1.09291      .   S
    C275   H110      1.08875      .   S
    C269   C270      1.40772      .   S
    Zn4    N329      2.04686  1_545   S
    Zn4    O357      2.04525      .   S
    Zn4    O363      2.11491      .   S
    Zn4    O373      2.14522  1_554   S
    Zn4    O379      2.03019  1_554   S
    N329   C271      1.34835      .   S
    O337   C169      1.27244      .   S
    O337   Zn2       2.14595  1_554   S
    O342   C185      1.27307      .   S
    O342   Zn1       2.10138  1_554   S
    C185   C182      1.49976      .   S
    H29    C183      1.08882      .   S
    O336   C169      1.27979      .   S
    O336   Zn1       2.03695  1_554   S
    C270   C271      1.38607      .   S
    C270   H106      1.09027      .   S
    C271   H107      1.08865      .   S
    C169   C166      1.49556      .   S
    O356   C239      1.27274      .   S
    C183   C182      1.40620      .   S
    C183   C184      1.38632  1_455   S
    C182   C181      1.39875      .   S
    O364   C134      1.27928      .   S
    O357   C239      1.27973      .   S
    C239   C240      1.50060      .   S
    H17    C167      1.08796      .   S
    O363   C134      1.27256      .   S
    H30    C184      1.09001      .   S
    C166   C167      1.39996      .   S
    C166   C165      1.40396      .   S
    C184   C179      1.40544      .   S
    C134   C260      1.49831      .   S
    C181   H28       1.08970      .   S
    C181   C180      1.39778  1_455   S
    C167   C168      1.39509      .   S
    H16    C165      1.08869      .   S
    C240   C241      1.39975      .   S
    C240   C245      1.40540      .   S
    H76    C241      1.08916      .   S
    C165   C164      1.38592      .   S
    H79    C245      1.08628      .   S
    H91    C259      1.08849      .   S
    C241   C242      1.39657      .   S
    C245   C244      1.38561      .   S
    C179   C180      1.40217      .   S
    C179   O341      1.37529      .   S
    C180   H27       1.08771      .   S
    C260   C259      1.40606      .   S
    C260   C132      1.39850      .   S
    C168   H18       1.08847      .   S
    C168   C163      1.40053      .   S
    C259   C258      1.38603      .   S
    C164   C163      1.40515      .   S
    C164   H15       1.08986      .   S
    H92    C132      1.08914      .   S
    C163   O335      1.36759      .   S
    C242   H77       1.08840      .   S
    C242   C243      1.40311      .   S
    C244   H78       1.08985      .   S
    C244   C243      1.40352      .   S
    O341   C178      1.43760      .   S
    C132   C133      1.39621      .   S
    H14    C162      1.10121      .   S
    C243   O358      1.37131      .   S
    C258   H90       1.08983      .   S
    C258   C257      1.40370      .   S
    O335   C162      1.43862      .   S
    H26    C178      1.10138      .   S
    C133   C257      1.40221      .   S
    C133   H93       1.08735      .   S
    C257   O362      1.37250  1_655   S
    C178   H25       1.09888      .   S
    C178   C161      1.53996      .   S
    C162   H13       1.10108      .   S
    C162   C161      1.54131      .   S
    O358   C246      1.43648      .   S
    H80    C246      1.10237      .   S
    H20    C170      1.09967      .   S
    O362   C256      1.43346      .   S
    H88    C256      1.10133      .   S
    C246   H81       1.09872      .   S
    C246   C247      1.53917      .   S
    C161   C170      1.53489      .   S
    C161   C160      1.53848      .   S
    C256   C247      1.53493      .   S
    C256   H89       1.10000      .   S
    C170   H19       1.10171      .   S
    C170   O338      1.43341      .   S
    H12    C160      1.09758      .   S
    C247   C248      1.53899      .   S
    C247   C135      1.53943      .   S
    C160   H11       1.10383      .   S
    C160   O334      1.43736      .   S
    O338   C171      1.37276  1_565   S
    H82    C248      1.09964      .   S
    H94    C135      1.09955      .   S
    H24    C176      1.08735      .   S
    O334   C157      1.37156      .   S
    C248   O359      1.43299      .   S
    C248   H83       1.10183      .   S
    C135   H95       1.10139      .   S
    C135   O365      1.43673      .   S
    C171   C176      1.40231      .   S
    C171   C172      1.40391      .   S
    C176   C175      1.39587      .   S
    O359   C249      1.37699      .   S
    H21    C172      1.08986      .   S
    C172   C173      1.38631      .   S
    C157   C156      1.40317      .   S
    C157   C158      1.40027      .   S
    H8     C156      1.08827      .   S
    H9     C158      1.08827      .   S
    H84    C250      1.09013      .   S
    H96    C261      1.08854      .   S
    O365   C136      1.37498      .   S
    C175   H23       1.08928      .   S
    C175   C174      1.39869      .   S
    C156   C155      1.39722      .   S
    C158   C159      1.39086      .   S
    C249   C250      1.40476      .   S
    C249   C254      1.40071      .   S
    C250   C251      1.38528      .   S
    H87    C254      1.08891      .   S
    C173   C174      1.40596      .   S
    C173   H22       1.08862      .   S
    C254   C253      1.38277      .   S
    C261   C136      1.40201      .   S
    C261   C262      1.39766  1_545   S
    C174   C177      1.49657      .   S
    C136   C265      1.40415      .   S
    C155   H7        1.08915      .   S
    C155   C154      1.39961      .   S
    C159   H10       1.08677      .   S
    C159   C154      1.40599      .   S
    C251   H85       1.08858      .   S
    C251   C252      1.40399      .   S
    C154   C153      1.50141      .   S
    C253   C252      1.40630      .   S
    C253   H86       1.09470      .   S
    H97    C262      1.08967      .   S
    C262   C263      1.39887      .   S
    C177   O339      1.27327      .   S
    C177   O340      1.27981      .   S
    C265   H99       1.09011      .   S
    C265   C264      1.38774  1_545   S
    C252   C255      1.49450      .   S
    O339   Zn0       2.10706      .   S
    C153   O333      1.28014      .   S
    C153   O332      1.27235      .   S
    O333   Zn0       2.03674      .   S
    H35    C190      1.08865      .   S
    O340   Zn32      2.05227      .   S
    C263   C264      1.40585      .   S
    C263   C266      1.49880      .   S
    H34    C189      1.09009      .   S
    C264   H98       1.08886      .   S
    C255   O360      1.28014      .   S
    C255   O361      1.27184      .   S
    O332   Zn32      2.18351      .   S
    C190   C189      1.38620      .   S
    C190   N325      1.34846      .   S
    C189   C188      1.40777      .   S
    O360   Zn5       2.03155      .   S
    H36    C191      1.09287      .   S
    H38    C194      1.08869      .   S
    C266   O366      1.27377      .   S
    C266   O367      1.27543      .   S
    O366   Zn5       2.09047      .   S
    H151   C322      1.08982      .   S
    H39    C195      1.08940      .   S
    H152   C323      1.09075      .   S
    O361   Zn6       2.14216      .   S
    N325   Zn0       2.04655  1_455   S
    N325   C186      1.34969      .   S
    Zn0    O355      2.03790      .   S
    Zn0    O349      2.14210      .   S
    C188   C191      1.45384      .   S
    C188   C187      1.40594      .   S
    C191   C192      1.35146      .   S
    C194   C195      1.38302      .   S
    C194   C193      1.40918      .   S
    C195   N324      1.35032      .   S
    C322   C323      1.38813      .   S
    C322   N330      1.34740      .   S
    C323   C319      1.40857      .   S
    O367   Zn6       2.03793      .   S
    H144   C313      1.08644      .   S
    H148   C318      1.09241      .   S
    H143   C312      1.08836      .   S
    C186   C187      1.38177      .   S
    C186   H31       1.08764      .   S
    Zn32   N324      2.06151      .   S
    Zn32   O354      2.09046      .   S
    Zn32   O348      2.03129      .   S
    C187   H33       1.08657      .   S
    C192   C193      1.45408      .   S
    C192   H37       1.09176      .   S
    C193   C197      1.40854      .   S
    N324   C196      1.34865      .   S
    N330   Zn5       2.06144      .   S
    N330   C321      1.35184      .   S
    C319   C318      1.45409      .   S
    C319   C320      1.40916      .   S
    C318   C317      1.35132      .   S
    C313   C312      1.38177      .   S
    C313   C314      1.40586      .   S
    Zn5    O368      2.18342      .   S
    Zn5    O376      2.05252      .   S
    C312   N331      1.34973      .   S
    O355   C226      1.27553      .   S
    C197   C196      1.38812      .   S
    C197   H41       1.09072      .   S
    C196   H40       1.08988      .   S
    C321   C320      1.38302      .   S
    C321   H150      1.08943      .   S
    C320   H149      1.08864      .   S
    C317   C314      1.45382      .   S
    C317   H147      1.09289      .   S
    C314   C315      1.40778      .   S
    Zn6    N331      2.04656  1_455   S
    Zn6    O369      2.03642      .   S
    Zn6    O375      2.10714      .   S
    N331   C316      1.34848      .   S
    O349   C210      1.27182      .   S
    O354   C226      1.27379      .   S
    C226   C223      1.49879      .   S
    H64    C224      1.08892      .   S
    O348   C210      1.28016      .   S
    C315   C316      1.38625      .   S
    C315   H145      1.09013      .   S
    C316   H146      1.08864      .   S
    O368   C279      1.27230      .   S
    C210   C103      1.49466      .   S
    C224   C223      1.40586      .   S
    C224   C225      1.38774  1_545   S
    C223   C222      1.39890      .   S
    O376   C303      1.27975      .   S
    O369   C279      1.28013      .   S
    C279   C280      1.50068      .   S
    H52    C208      1.08784      .   S
    O375   C303      1.27322      .   S
    H65    C225      1.09011      .   S
    C103   C208      1.39970      .   S
    C103   C102      1.40388      .   S
    C225   C220      1.40424      .   S
    C303   C300      1.49672      .   S
    C222   H63       1.08967      .   S
    C222   C221      1.39764  1_545   S
    C208   C209      1.39539      .   S
    H51    C102      1.08856      .   S
    C280   C285      1.40621      .   S
    C280   C281      1.40012      .   S
    H117   C285      1.08695      .   S
    H114   C281      1.08926      .   S
    C102   C101      1.38548      .   S
    H129   C299      1.08853      .   S
    C285   C284      1.38579      .   S
    C281   C282      1.39722      .   S
    C220   C221      1.40200      .   S
    C220   O353      1.37494      .   S
    C300   C299      1.40590      .   S
    C300   C301      1.39869      .   S
    C221   H62       1.08846      .   S
    C209   H53       1.08864      .   S
    C209   C100      1.40075      .   S
    C299   C298      1.38632      .   S
    C101   C100      1.40476      .   S
    C101   H50       1.09003      .   S
    H130   C301      1.08932      .   S
    C284   H116      1.08985      .   S
    C284   C283      1.40382      .   S
    C100   O347      1.36696      .   S
    C282   H115      1.08824      .   S
    C282   C283      1.40314      .   S
    C301   C302      1.39595      .   S
    O353   C219      1.43606      .   S
    H49    C207      1.10054      .   S
    C283   O370      1.37161      .   S
    C298   H128      1.08986      .   S
    C298   C297      1.40392      .   S
    O347   C207      1.43886      .   S
    H61    C219      1.10097      .   S
    C302   C297      1.40225      .   S
    C302   H131      1.08738      .   S
    C297   O374      1.37286  1_565   S
    C219   H60       1.10023      .   S
    C219   C206      1.53997      .   S
    C207   H48       1.10065      .   S
    C207   C206      1.54020      .   S
    O370   C286      1.43616      .   S
    H118   C286      1.10235      .   S
    H55    C211      1.09984      .   S
    O374   C296      1.43339      .   S
    H126   C296      1.10167      .   S
    C286   H119      1.09866      .   S
    C286   C287      1.54000      .   S
    C206   C211      1.53489      .   S
    C206   C205      1.53809      .   S
    C296   C287      1.53490      .   S
    C296   H127      1.09968      .   S
    C211   H54       1.10153      .   S
    C211   O350      1.43355      .   S
    H47    C205      1.09788      .   S
    C287   C288      1.54088      .   S
    C287   C304      1.53996      .   S
    C205   H46       1.10334      .   S
    C205   O346      1.43738      .   S
    O350   C212      1.37248  1_655   S
    H120   C288      1.10069      .   S
    H137   C304      1.09987      .   S
    H59    C217      1.08735      .   S
    O346   C202      1.37111      .   S
    C288   O371      1.43894      .   S
    C288   H121      1.10048      .   S
    C304   H138      1.10129      .   S
    C304   O377      1.43761      .   S
    C212   C217      1.40221      .   S
    C212   C213      1.40374      .   S
    C217   C216      1.39619      .   S
    O371   C289      1.36653      .   S
    H56    C213      1.08987      .   S
    C213   C214      1.38601      .   S
    C202   C203      1.40356      .   S
    C202   C201      1.40307      .   S
    H44    C203      1.08982      .   S
    H43    C201      1.08830      .   S
    H122   C290      1.09011      .   S
    H139   C306      1.08855      .   S
    C216   H58       1.08917      .   S
    C216   C215      1.39859      .   S
    O377   C305      1.37528      .   S
    C203   C204      1.38561      .   S
    C201   C200      1.39680      .   S
    C289   C290      1.40566      .   S
    C289   C294      1.40108      .   S
    C290   C291      1.38588      .   S
    C214   C215      1.40609      .   S
    C214   H57       1.08840      .   S
    H125   C294      1.08901      .   S
    C294   C293      1.39525      .   S
    C215   C218      1.49670      .   S
    C306   C305      1.40215      .   S
    C306   C307      1.39776  1_455   S
    C305   C310      1.40418      .   S
    C204   H45       1.08627      .   S
    C204   C199      1.40540      .   S
    C200   H42       1.08912      .   S
    C200   C199      1.39969      .   S
    C291   H123      1.08873      .   S
    C291   C292      1.40402      .   S
    C199   C198      1.50047      .   S
    H140   C307      1.08971      .   S
    C293   C292      1.39991      .   S
    C293   H124      1.08794      .   S
    C307   C308      1.39873      .   S
    C218   O351      1.27300      .   S
    C218   O352      1.28022      .   S
    C310   H142      1.09008      .   S
    C310   C309      1.38737  1_455   S
    C292   C295      1.49553      .   S
    O351   Zn2       2.11453      .   S
    C198   O345      1.27943      .   S
    C198   O344      1.27285      .   S
    O345   Zn2       2.04643      .   S
    O352   Zn1       2.05062      .   S
    H69    C231      1.08835      .   S
    C308   C309      1.40618      .   S
    C308   C311      1.49937      .   S
    H68    C230      1.09013      .   S
    C309   H141      1.08896      .   S
    O344   Zn1       2.16331      .   S
    C295   O372      1.27982      .   S
    C295   O373      1.27243      .   S
    C231   C230      1.38611      .   S
    C231   N327      1.34866      .   S
    C230   C229      1.40781      .   S
    H72    C235      1.08960      .   S
    H70    C232      1.09289      .   S
    H73    C236      1.09000      .   S
    C311   O378      1.27316      .   S
    C311   O379      1.27635      .   S
    H112   C277      1.08988      .   S
    H113   C278      1.09060      .   S
    N327   Zn2       2.04687  1_545   S
    N327   C227      1.34980      .   S
    C229   C232      1.45391      .   S
    C229   C228      1.40582      .   S
    C235   C236      1.38305      .   S
    C235   C234      1.40918      .   S
    C232   C233      1.35140      .   S
    C236   N326      1.35132      .   S
    C277   C278      1.38838      .   S
    Zn1    N326      2.06449      .   S
    C227   C228      1.38210      .   S
    C233   C234      1.45476      .   S
    Zn32   Zn0       2.80171      .   S
    Zn1    Zn2       2.79937      .   S
    Zn3    Zn4       2.79920      .   S
    Zn5    Zn6       2.80171      .   S
