# CIF file generated by openbabel 2.4.90, see http://openbabel.sf.net
data_I
_chemical_name_common ''
_cell_length_a 16.171
_cell_length_b 16.186
_cell_length_c 26.823
_cell_angle_alpha 84.506
_cell_angle_beta 84.475
_cell_angle_gamma 84.441
_space_group_name_H-M_alt 'P 1'
_space_group_name_Hall 'P 1'
loop_
    _symmetry_equiv_pos_as_xyz
    x,y,z
loop_
    _atom_site_label
    _atom_site_type_symbol
    _atom_site_fract_x
    _atom_site_fract_y
    _atom_site_fract_z
    _atom_site_occupancy
    C0      C    0.72217   0.32703   0.49341   1.000
    C1      C    0.89549   0.31560   0.47090   1.000
    C2      C    0.32666   0.72555   0.99186   1.000
    C3      C    0.31368   0.89881   0.97064   1.000
    C4      C    0.67335   0.27443   0.00816   1.000
    C5      C    0.68620   0.10118   0.02937   1.000
    C6      C    0.27785   0.67297   0.50660   1.000
    C7      C    0.10453   0.68440   0.52911   1.000
    C8      C    0.66693   0.56180   0.38607   1.000
    C9      C    0.66942   0.69558   0.33299   1.000
    C10     C    0.93698   0.68166   0.33511   1.000
    C11     C    0.93255   0.54595   0.38774   1.000
    C12     C    0.69721   0.83849   0.29936   1.000
    C13     C    0.71424   0.75634   0.25817   1.000
    C14     C    0.64909   0.92698   0.22152   1.000
    C15     C    0.72096   0.94051   0.16680   1.000
    C16     C    0.62081   0.69133   0.15960   1.000
    C17     C    0.50439   0.68248   0.10565   1.000
    C18     C    0.46888   0.94873   0.08723   1.000
    C19     C    0.58317   0.95986   0.14090   1.000
    C20     C    0.85668   0.91616   0.27674   1.000
    C21     C    0.83785   0.98187   0.22052   1.000
    C22     C    0.63237   0.08401   0.32284   1.000
    C23     C    0.65733   0.19248   0.37893   1.000
    C24     C    0.92107   0.13650   0.35089   1.000
    C25     C    0.89820   0.02912   0.29504   1.000
    C26     C    0.89962   0.80450   0.22080   1.000
    C27     C    0.82554   0.76798   0.18452   1.000
    C28     C    0.96911   0.73257   0.15800   1.000
    C29     C    0.10227   0.71032   0.10452   1.000
    C30     C    0.07259   0.96237   0.03906   1.000
    C31     C    0.93759   0.98607   0.09148   1.000
    C32     C    0.01563   0.41421   0.50860   1.000
    C33     C    0.16798   0.40991   0.51447   1.000
    C34     C    0.19500   0.18859   0.43310   1.000
    C35     C    0.04065   0.20395   0.43015   1.000
    C36     C    0.31848   0.23599   0.45907   1.000
    C37     C    0.29752   0.39802   0.51285   1.000
    C38     C    0.44877   0.22144   0.45976   1.000
    C39     C    0.60202   0.22174   0.46278   1.000
    C40     C    0.57523   0.43552   0.53765   1.000
    C41     C    0.41914   0.44699   0.53672   1.000
    C42     C    0.56184   0.67060   0.88745   1.000
    C43     C    0.69629   0.67219   0.83471   1.000
    C44     C    0.67986   0.94021   0.83274   1.000
    C45     C    0.54355   0.93662   0.88497   1.000
    C46     C    0.83862   0.69980   0.79960   1.000
    C47     C    0.75560   0.71546   0.75899   1.000
    C48     C    0.92557   0.65044   0.72136   1.000
    C49     C    0.93835   0.72163   0.66638   1.000
    C50     C    0.68925   0.62263   0.65907   1.000
    C51     C    0.68069   0.50578   0.60538   1.000
    C52     C    0.94721   0.46777   0.58919   1.000
    C53     C    0.95798   0.58251   0.64260   1.000
    C54     C    0.91579   0.85868   0.77544   1.000
    C55     C    0.98049   0.83942   0.71887   1.000
    C56     C    0.08531   0.63536   0.82077   1.000
    C57     C    0.19339   0.66096   0.87695   1.000
    C58     C    0.13489   0.92423   0.84973   1.000
    C59     C    0.02782   0.90071   0.79383   1.000
    C60     C    0.80243   0.90048   0.72035   1.000
    C61     C    0.76565   0.82575   0.68461   1.000
    C62     C    0.72968   0.96910   0.65751   1.000
    C63     C    0.70735   0.10254   0.60436   1.000
    C64     C    0.96001   0.07410   0.53932   1.000
    C65     C    0.98384   0.93884   0.59142   1.000
    C66     C    0.41155   0.01821   0.01010   1.000
    C67     C    0.40786   0.17051   0.01580   1.000
    C68     C    0.18883   0.19852   0.93234   1.000
    C69     C    0.20336   0.04431   0.92965   1.000
    C70     C    0.23614   0.32147   0.95856   1.000
    C71     C    0.39819   0.30082   0.01239   1.000
    C72     C    0.22426   0.45155   0.95600   1.000
    C73     C    0.22381   0.60474   0.95880   1.000
    C74     C    0.43332   0.57915   0.03767   1.000
    C75     C    0.44528   0.42315   0.03735   1.000
    C76     C    0.43809   0.32938   0.11257   1.000
    C77     C    0.30359   0.32781   0.16527   1.000
    C78     C    0.32006   0.05978   0.16730   1.000
    C79     C    0.45640   0.06336   0.11510   1.000
    C80     C    0.16126   0.30022   0.20042   1.000
    C81     C    0.24433   0.28452   0.24100   1.000
    C82     C    0.07437   0.34955   0.27867   1.000
    C83     C    0.06164   0.27836   0.33365   1.000
    C84     C    0.31074   0.37734   0.34094   1.000
    C85     C    0.31932   0.49419   0.39463   1.000
    C86     C    0.05279   0.53222   0.41080   1.000
    C87     C    0.04201   0.41748   0.35739   1.000
    C88     C    0.08413   0.14128   0.22462   1.000
    C89     C    0.01944   0.16057   0.28119   1.000
    C90     C    0.91462   0.36460   0.17926   1.000
    C91     C    0.80657   0.33898   0.12306   1.000
    C92     C    0.86510   0.07572   0.15028   1.000
    C93     C    0.97214   0.09925   0.20619   1.000
    C94     C    0.19753   0.09952   0.27966   1.000
    C95     C    0.23434   0.17425   0.31538   1.000
    C96     C    0.27032   0.03090   0.34249   1.000
    C97     C    0.29267   0.89745   0.39564   1.000
    C98     C    0.04002   0.92589   0.46070   1.000
    C99     C    0.01618   0.06115   0.40861   1.000
    C100    C    0.58835   0.98174   0.98990   1.000
    C101    C    0.59207   0.82945   0.98419   1.000
    C102    C    0.81117   0.80150   0.06766   1.000
    C103    C    0.79660   0.95572   0.07034   1.000
    C104    C    0.76385   0.67853   0.04146   1.000
    C105    C    0.60181   0.69915   0.98763   1.000
    C106    C    0.77574   0.54844   0.04396   1.000
    C107    C    0.77619   0.39524   0.04110   1.000
    C108    C    0.56667   0.42082   0.96236   1.000
    C109    C    0.55472   0.57682   0.96267   1.000
    C110    C    0.33307   0.43817   0.61390   1.000
    C111    C    0.33054   0.30439   0.66700   1.000
    C112    C    0.06299   0.31835   0.66485   1.000
    C113    C    0.06745   0.45406   0.61220   1.000
    C114    C    0.30272   0.16151   0.70064   1.000
    C115    C    0.28573   0.24368   0.74181   1.000
    C116    C    0.35088   0.07306   0.77849   1.000
    C117    C    0.27902   0.05957   0.83315   1.000
    C118    C    0.37922   0.30873   0.84036   1.000
    C119    C    0.49561   0.31755   0.89436   1.000
    C120    C    0.53101   0.05129   0.91282   1.000
    C121    C    0.41675   0.04020   0.85905   1.000
    C122    C    0.14329   0.08383   0.72329   1.000
    C123    C    0.16212   0.01816   0.77952   1.000
    C124    C    0.36761   0.91602   0.67718   1.000
    C125    C    0.34266   0.80757   0.62108   1.000
    C126    C    0.07891   0.86349   0.64914   1.000
    C127    C    0.10177   0.97085   0.70501   1.000
    C128    C    0.10035   0.19553   0.77915   1.000
    C129    C    0.17442   0.23206   0.81548   1.000
    C130    C    0.03084   0.26744   0.84196   1.000
    C131    C    0.89768   0.28967   0.89550   1.000
    C132    C    0.92737   0.03758   0.96092   1.000
    C133    C    0.06237   0.01392   0.90850   1.000
    C134    C    0.98439   0.58578   0.49134   1.000
    C135    C    0.83204   0.59007   0.48555   1.000
    C136    C    0.80501   0.81138   0.56692   1.000
    C137    C    0.95937   0.79603   0.56987   1.000
    C138    C    0.68154   0.76399   0.54095   1.000
    C139    C    0.70250   0.60197   0.48710   1.000
    C140    C    0.55125   0.77855   0.54025   1.000
    C141    C    0.39801   0.77826   0.53724   1.000
    C142    C    0.42478   0.56448   0.46237   1.000
    C143    C    0.58087   0.55300   0.46329   1.000
    C144    C    0.79902   0.46436   0.42339   1.000
    C145    C    0.79950   0.54503   0.39073   1.000
    C146    C    0.72605   0.58822   0.37490   1.000
    C147    C    0.72756   0.66348   0.34474   1.000
    C148    C    0.80406   0.69679   0.33020   1.000
    C149    C    0.87809   0.65475   0.34600   1.000
    C150    C    0.87539   0.57967   0.37578   1.000
    C151    C    0.74361   0.80552   0.27360   1.000
    C152    C    0.77485   0.86764   0.23048   1.000
    C153    C    0.70129   0.89645   0.19860   1.000
    C154    C    0.60948   0.82537   0.15344   1.000
    C155    C    0.58637   0.74737   0.14374   1.000
    C156    C    0.52192   0.74267   0.11389   1.000
    C157    C    0.47931   0.81544   0.09284   1.000
    C158    C    0.50171   0.89259   0.10398   1.000
    C159    C    0.56595   0.89874   0.13425   1.000
    C160    C    0.41588   0.81044   0.05643   1.000
    C161    C    0.80903   0.94137   0.25128   1.000
    C162    C    0.76306   0.04856   0.30627   1.000
    C163    C    0.69540   0.09583   0.32957   1.000
    C164    C    0.70952   0.15579   0.36062   1.000
    C165    C    0.79099   0.17065   0.36920   1.000
    C166    C    0.85785   0.12471   0.34465   1.000
    C167    C    0.84479   0.06406   0.31329   1.000
    C168    C    0.80506   0.23132   0.40561   1.000
    C169    C    0.84675   0.82370   0.19819   1.000
    C170    C    0.94519   0.86141   0.12833   1.000
    C171    C    0.99087   0.78322   0.13194   1.000
    C172    C    0.06579   0.77057   0.10192   1.000
    C173    C    0.09622   0.83478   0.06863   1.000
    C174    C    0.04888   0.91237   0.06495   1.000
    C175    C    0.97395   0.92572   0.09400   1.000
    C176    C    0.17832   0.82291   0.03790   1.000
    C177    C    0.05838   0.36604   0.49216   1.000
    C178    C    0.14344   0.36260   0.49534   1.000
    C179    C    0.19587   0.29829   0.47410   1.000
    C180    C    0.15783   0.24000   0.45025   1.000
    C181    C    0.07203   0.24778   0.44842   1.000
    C182    C    0.28586   0.29019   0.47599   1.000
    C183    C    0.32979   0.34343   0.49628   1.000
    C184    C    0.41989   0.33553   0.49773   1.000
    C185    C    0.47323   0.27079   0.47731   1.000
    C186    C    0.55855   0.26981   0.47892   1.000
    C187    C    0.54378   0.39016   0.52062   1.000
    C188    C    0.45764   0.39572   0.52021   1.000
    C189    C    0.46296   0.80329   0.92245   1.000
    C190    C    0.54388   0.80344   0.88999   1.000
    C191    C    0.58790   0.72959   0.87543   1.000
    C192    C    0.66348   0.73059   0.84549   1.000
    C193    C    0.69620   0.80698   0.82991   1.000
    C194    C    0.65335   0.88142   0.84485   1.000
    C195    C    0.57795   0.87919   0.87403   1.000
    C196    C    0.80501   0.74547   0.77380   1.000
    C197    C    0.86631   0.77618   0.73007   1.000
    C198    C    0.89466   0.70231   0.69845   1.000
    C199    C    0.82337   0.61008   0.65391   1.000
    C200    C    0.74536   0.58755   0.64373   1.000
    C201    C    0.74083   0.52289   0.61406   1.000
    C202    C    0.81377   0.47955   0.59369   1.000
    C203    C    0.89093   0.50131   0.60530   1.000
    C204    C    0.89688   0.56579   0.63542   1.000
    C205    C    0.80881   0.41608   0.55736   1.000
    C206    C    0.94059   0.81082   0.75004   1.000
    C207    C    0.04846   0.76573   0.80472   1.000
    C208    C    0.09647   0.69841   0.82773   1.000
    C209    C    0.15622   0.71291   0.85883   1.000
    C210    C    0.17019   0.79442   0.86774   1.000
    C211    C    0.12375   0.86096   0.84332   1.000
    C212    C    0.06324   0.84752   0.81191   1.000
    C213    C    0.23036   0.80868   0.90443   1.000
    C214    C    0.82154   0.84744   0.69780   1.000
    C215    C    0.85880   0.94578   0.62792   1.000
    C216    C    0.78042   0.99120   0.63157   1.000
    C217    C    0.76774   0.06624   0.60178   1.000
    C218    C    0.83209   0.09700   0.56868   1.000
    C219    C    0.90991   0.05002   0.56502   1.000
    C220    C    0.92331   0.97496   0.59394   1.000
    C221    C    0.81993   0.17914   0.53822   1.000
    C222    C    0.36403   0.06116   0.99318   1.000
    C223    C    0.36101   0.14617   0.99624   1.000
    C224    C    0.29766   0.19887   0.97423   1.000
    C225    C    0.23960   0.16113   0.95000   1.000
    C226    C    0.24693   0.07539   0.94830   1.000
    C227    C    0.29022   0.28887   0.97564   1.000
    C228    C    0.34373   0.33297   0.99558   1.000
    C229    C    0.33595   0.42313   0.99643   1.000
    C230    C    0.27238   0.47621   0.97461   1.000
    C231    C    0.27105   0.56153   0.97600   1.000
    C232    C    0.38903   0.54741   0.01990   1.000
    C233    C    0.39481   0.46129   0.01981   1.000
    C234    C    0.53700   0.19667   0.07760   1.000
    C235    C    0.45607   0.19653   0.11006   1.000
    C236    C    0.41202   0.27039   0.12460   1.000
    C237    C    0.33642   0.26940   0.15450   1.000
    C238    C    0.30370   0.19301   0.17009   1.000
    C239    C    0.34657   0.11856   0.15518   1.000
    C240    C    0.42199   0.12079   0.12602   1.000
    C241    C    0.19489   0.25453   0.22614   1.000
    C242    C    0.13363   0.22381   0.26995   1.000
    C243    C    0.10530   0.29768   0.30150   1.000
    C244    C    0.17662   0.38991   0.34611   1.000
    C245    C    0.25463   0.41243   0.35629   1.000
    C246    C    0.25917   0.47708   0.38595   1.000
    C247    C    0.18624   0.52044   0.40633   1.000
    C248    C    0.10907   0.49867   0.39400   1.000
    C249    C    0.10311   0.43420   0.36460   1.000
    C250    C    0.19120   0.58391   0.44265   1.000
    C251    C    0.05934   0.18916   0.25000   1.000
    C252    C    0.95148   0.23423   0.19531   1.000
    C253    C    0.90347   0.30154   0.17230   1.000
    C254    C    0.84374   0.28704   0.14119   1.000
    C255    C    0.82978   0.20553   0.13228   1.000
    C256    C    0.87623   0.13900   0.15669   1.000
    C257    C    0.93671   0.15243   0.18811   1.000
    C258    C    0.76961   0.19128   0.09550   1.000
    C259    C    0.17844   0.15256   0.30217   1.000
    C260    C    0.14121   0.05422   0.37210   1.000
    C261    C    0.21959   0.00880   0.36844   1.000
    C262    C    0.23228   0.93376   0.39823   1.000
    C263    C    0.16793   0.90300   0.43133   1.000
    C264    C    0.09011   0.94997   0.43500   1.000
    C265    C    0.07671   0.02504   0.40608   1.000
    C266    C    0.18010   0.82085   0.46179   1.000
    C267    C    0.63590   0.93881   0.00685   1.000
    C268    C    0.63894   0.85380   0.00379   1.000
    C269    C    0.70231   0.80112   0.02579   1.000
    C270    C    0.76038   0.83888   0.05000   1.000
    C271    C    0.75303   0.92462   0.05168   1.000
    C272    C    0.70977   0.71111   0.02438   1.000
    C273    C    0.65626   0.66701   0.00444   1.000
    C274    C    0.66405   0.57685   0.00358   1.000
    C275    C    0.72762   0.52377   0.02541   1.000
    C276    C    0.72895   0.43845   0.02402   1.000
    C277    C    0.61097   0.45256   0.98012   1.000
    C278    C    0.60519   0.53869   0.98022   1.000
    C279    C    0.20100   0.53565   0.57661   1.000
    C280    C    0.20050   0.45497   0.60920   1.000
    C281    C    0.27394   0.41176   0.62509   1.000
    C282    C    0.27241   0.33650   0.65525   1.000
    C283    C    0.19591   0.30321   0.66978   1.000
    C284    C    0.12188   0.34526   0.65358   1.000
    C285    C    0.12460   0.42034   0.62419   1.000
    C286    C    0.25634   0.19450   0.72631   1.000
    C287    C    0.22512   0.13240   0.76953   1.000
    C288    C    0.29868   0.10361   0.80138   1.000
    C289    C    0.39049   0.17469   0.84650   1.000
    C290    C    0.41363   0.25268   0.85626   1.000
    C291    C    0.47807   0.25736   0.88612   1.000
    C292    C    0.52064   0.18459   0.90719   1.000
    C293    C    0.49821   0.10744   0.89606   1.000
    C294    C    0.43398   0.10131   0.86577   1.000
    C295    C    0.58407   0.18957   0.94360   1.000
    C296    C    0.19094   0.05864   0.74875   1.000
    C297    C    0.23691   0.95145   0.69376   1.000
    C298    C    0.30458   0.90419   0.67045   1.000
    C299    C    0.29046   0.84425   0.63939   1.000
    C300    C    0.20900   0.82937   0.63082   1.000
    C301    C    0.14213   0.87529   0.65538   1.000
    C302    C    0.15518   0.93594   0.68675   1.000
    C303    C    0.19495   0.76872   0.59439   1.000
    C304    C    0.15322   0.17634   0.80182   1.000
    C305    C    0.05477   0.13859   0.87167   1.000
    C306    C    0.00909   0.21678   0.86807   1.000
    C307    C    0.93416   0.22941   0.89809   1.000
    C308    C    0.90374   0.16519   0.93137   1.000
    C309    C    0.95108   0.08760   0.93503   1.000
    C310    C    0.02601   0.07427   0.90590   1.000
    C311    C    0.82164   0.17706   0.96208   1.000
    C312    C    0.94165   0.63395   0.50785   1.000
    C313    C    0.85659   0.63739   0.50467   1.000
    C314    C    0.80415   0.70169   0.52591   1.000
    C315    C    0.84219   0.75999   0.54976   1.000
    C316    C    0.92799   0.75220   0.55160   1.000
    C317    C    0.71416   0.70979   0.52402   1.000
    C318    C    0.67023   0.65656   0.50373   1.000
    C319    C    0.58013   0.66446   0.50229   1.000
    C320    C    0.52679   0.72920   0.52270   1.000
    C321    C    0.44147   0.73019   0.52110   1.000
    C322    C    0.45624   0.60983   0.47940   1.000
    C323    C    0.54237   0.60428   0.47980   1.000
    C324    C    0.59395   0.32891   0.49970   1.000
    C325    C    0.02272   0.30993   0.46900   1.000
    C326    C    0.32875   0.59726   0.99792   1.000
    C327    C    0.30833   0.02584   0.96948   1.000
    C328    C    0.67124   0.40272   0.00211   1.000
    C329    C    0.69160   0.97415   0.03054   1.000
    C330    C    0.40607   0.67109   0.50020   1.000
    C331    C    0.97730   0.69007   0.53101   1.000
    C332    C    0.72956   0.44163   0.44376   1.000
    C333    C    0.87073   0.42536   0.42896   1.000
    C334    C    0.81329   0.76935   0.30014   1.000
    C335    C    0.67669   0.82196   0.18109   1.000
    C336    C    0.39897   0.73747   0.04844   1.000
    C337    C    0.38509   0.87832   0.03481   1.000
    C338    C    0.74237   0.98842   0.27807   1.000
    C339    C    0.87947   0.24712   0.41009   1.000
    C340    C    0.73977   0.26198   0.43066   1.000
    C341    C    0.87162   0.88135   0.15655   1.000
    C342    C    0.21537   0.74989   0.03737   1.000
    C343    C    0.20496   0.88883   0.01444   1.000
    C344    C    0.44073   0.73386   0.94312   1.000
    C345    C    0.42333   0.87475   0.92758   1.000
    C346    C    0.76897   0.81565   0.79991   1.000
    C347    C    0.81987   0.67740   0.68141   1.000
    C348    C    0.73570   0.39905   0.54958   1.000
    C349    C    0.87667   0.38547   0.53558   1.000
    C350    C    0.98834   0.74457   0.77666   1.000
    C351    C    0.24600   0.88300   0.90910   1.000
    C352    C    0.26077   0.74338   0.92953   1.000
    C353    C    0.87866   0.87204   0.65587   1.000
    C354    C    0.74649   0.21548   0.53774   1.000
    C355    C    0.88562   0.20654   0.51488   1.000
    C356    C    0.55926   0.26610   0.05695   1.000
    C357    C    0.57661   0.12521   0.07240   1.000
    C358    C    0.23089   0.18436   0.20007   1.000
    C359    C    0.18011   0.32259   0.31800   1.000
    C360    C    0.26431   0.60093   0.45043   1.000
    C361    C    0.12335   0.61453   0.46443   1.000
    C362    C    0.01158   0.25539   0.22338   1.000
    C363    C    0.75396   0.11697   0.09090   1.000
    C364    C    0.73924   0.25659   0.07047   1.000
    C365    C    0.12134   0.12795   0.34415   1.000
    C366    C    0.25353   0.78450   0.46225   1.000
    C367    C    0.11441   0.79347   0.48513   1.000
    C368    C    0.27046   0.55839   0.55626   1.000
    C369    C    0.12929   0.57466   0.57104   1.000
    C370    C    0.18665   0.23067   0.69986   1.000
    C371    C    0.32329   0.17811   0.81890   1.000
    C372    C    0.60098   0.26253   0.95161   1.000
    C373    C    0.61488   0.12167   0.96520   1.000
    C374    C    0.25760   0.01158   0.72197   1.000
    C375    C    0.12054   0.75288   0.58993   1.000
    C376    C    0.26023   0.73813   0.56932   1.000
    C377    C    0.12835   0.11868   0.84346   1.000
    C378    C    0.78461   0.25010   0.96264   1.000
    C379    C    0.79500   0.11115   0.98558   1.000
    O380    O    0.67230   0.33858   0.00513   1.000
    O381    O    0.70010   0.42058   0.01306   1.000
    O382    O    0.64111   0.42764   0.99111   1.000
    O383    O    0.66015   0.62193   0.00401   1.000
    O384    O    0.69583   0.55031   0.01449   1.000
    O385    O    0.63462   0.55777   0.99190   1.000
    O386    O    0.63741   0.89631   0.00532   1.000
    O387    O    0.67062   0.82746   0.01479   1.000
    O388    O    0.61550   0.84162   0.99399   1.000
    O389    O    0.68301   0.68906   0.01441   1.000
    O390    O    0.62903   0.68308   0.99604   1.000
    O391    O    0.66375   0.95648   0.01869   1.000
    O392    O    0.61212   0.96028   0.99837   1.000
    O393    O    0.61630   0.27027   0.03255   1.000
    O394    O    0.70629   0.26551   0.03931   1.000
    O395    O    0.63716   0.26848   0.97988   1.000
    O396    O    0.72898   0.26227   0.98540   1.000
    O397    O    0.38779   0.03968   0.00164   1.000
    O398    O    0.37096   0.31690   0.00398   1.000
    O399    O    0.19164   0.85587   0.02617   1.000
    O400    O    0.25932   0.89382   0.99254   1.000
    O401    O    0.38444   0.15834   0.00602   1.000
    O402    O    0.39192   0.50435   0.01986   1.000
    O403    O    0.42004   0.44222   0.02858   1.000
    O404    O    0.36538   0.44221   0.00812   1.000
    O405    O    0.41118   0.56328   0.02878   1.000
    O406    O    0.35889   0.57234   0.00891   1.000
    O407    O    0.72828   0.48111   0.02471   1.000
    O408    O    0.75257   0.41684   0.03256   1.000
    O409    O    0.70604   0.75611   0.02508   1.000
    O410    O    0.73681   0.69482   0.03292   1.000
    O411    O    0.75168   0.53610   0.03469   1.000
    O412    O    0.73134   0.82000   0.03789   1.000
    O413    O    0.68890   0.03766   0.02995   1.000
    O414    O    0.63140   0.11320   0.05088   1.000
    O415    O    0.72008   0.10907   0.06013   1.000
    O416    O    0.65054   0.11143   0.99728   1.000
    O417    O    0.74060   0.10617   0.00747   1.000
    O418    O    0.72232   0.94938   0.04111   1.000
    O419    O    0.40048   0.84438   0.04562   1.000
    O420    O    0.34938   0.88857   0.00272   1.000
    O421    O    0.19685   0.78640   0.03764   1.000
    O422    O    0.27102   0.73772   0.01461   1.000
    O423    O    0.13727   0.82885   0.05326   1.000
    O424    O    0.06073   0.93737   0.05200   1.000
    O425    O    0.40742   0.77395   0.05243   1.000
    O426    O    0.36282   0.73151   0.02015   1.000
    O427    O    0.75670   0.88175   0.05084   1.000
    O428    O    0.78577   0.82019   0.05883   1.000
    O429    O    0.77481   0.94017   0.06101   1.000
    O430    O    0.44759   0.81294   0.07464   1.000
    O431    O    0.54813   0.23139   0.06728   1.000
    O432    O    0.07255   0.87358   0.06679   1.000
    O433    O    0.01141   0.91904   0.07947   1.000
    O434    O    0.08100   0.80268   0.08527   1.000
    O435    O    0.75442   0.22393   0.08298   1.000
    O436    O    0.55680   0.16094   0.07500   1.000
    O437    O    0.49653   0.19660   0.09383   1.000
    O438    O    0.48530   0.92066   0.09560   1.000
    O439    O    0.76178   0.15412   0.09320   1.000
    O440    O    0.95577   0.95589   0.09274   1.000
    O441    O    0.49051   0.85402   0.09841   1.000
    O442    O    0.50061   0.77906   0.10336   1.000
    O443    O    0.95957   0.89356   0.11116   1.000
    O444    O    0.79969   0.19841   0.11389   1.000
    O445    O    0.08403   0.74044   0.10322   1.000
    O446    O    0.02833   0.77689   0.11693   1.000
    O447    O    0.53383   0.89567   0.11911   1.000
    O448    O    0.51315   0.71258   0.10977   1.000
    O449    O    0.43404   0.23346   0.11733   1.000
    O450    O    0.43903   0.15866   0.11804   1.000
    O451    O    0.42505   0.29989   0.11858   1.000
    O452    O    0.55414   0.74502   0.12882   1.000
    O453    O    0.43919   0.09207   0.12056   1.000
    O454    O    0.82515   0.31301   0.13212   1.000
    O455    O    0.37422   0.26989   0.13955   1.000
    O456    O    0.38428   0.11967   0.14060   1.000
    O457    O    0.96803   0.82231   0.13014   1.000
    O458    O    0.90841   0.87138   0.14244   1.000
    O459    O    0.97999   0.75790   0.14497   1.000
    O460    O    0.83676   0.24629   0.13673   1.000
    O461    O    0.85300   0.17227   0.14448   1.000
    O462    O    0.57456   0.92930   0.13757   1.000
    O463    O    0.58772   0.86205   0.14384   1.000
    O464    O    0.87360   0.29429   0.15674   1.000
    O465    O    0.59792   0.78637   0.14859   1.000
    O466    O    0.60359   0.71935   0.15167   1.000
    O467    O    0.87066   0.10736   0.15348   1.000
    O468    O    0.64309   0.82366   0.16726   1.000
    O469    O    0.32001   0.29860   0.15988   1.000
    O470    O    0.32006   0.23121   0.16229   1.000
    O471    O    0.33332   0.08917   0.16124   1.000
    O472    O    0.32513   0.15579   0.16263   1.000
    O473    O    0.85919   0.85253   0.17737   1.000
    O474    O    0.90647   0.14571   0.17240   1.000
    O475    O    0.71112   0.91848   0.18270   1.000
    O476    O    0.26729   0.18869   0.18508   1.000
    O477    O    0.90905   0.33307   0.17578   1.000
    O478    O    0.92747   0.26788   0.18380   1.000
    O479    O    0.68899   0.85920   0.18985   1.000
    O480    O    0.83614   0.79584   0.19135   1.000
    O481    O    0.94410   0.19333   0.19171   1.000
    O482    O    0.95443   0.12584   0.19715   1.000
    O483    O    0.98153   0.24481   0.20934   1.000
    O484    O    0.87318   0.81410   0.20949   1.000
    O485    O    0.81080   0.84567   0.21433   1.000
    O486    O    0.67519   0.91171   0.21006   1.000
    O487    O    0.73807   0.88204   0.21454   1.000
    O488    O    0.21289   0.21945   0.21310   1.000
    O489    O    0.17808   0.27737   0.21328   1.000
    O490    O    0.82344   0.96162   0.23590   1.000
    O491    O    0.03546   0.22228   0.23669   1.000
    O492    O    0.07173   0.16522   0.23731   1.000
    O493    O    0.21961   0.26953   0.23357   1.000
    O494    O    0.16426   0.23917   0.24804   1.000
    O495    O    0.79194   0.90450   0.24088   1.000
    O496    O    0.75923   0.83658   0.25204   1.000
    O497    O    0.09648   0.20648   0.25998   1.000
    O498    O    0.03939   0.17487   0.26559   1.000
    O499    O    0.83285   0.92877   0.26401   1.000
    O500    O    0.77570   0.96490   0.26467   1.000
    O501    O    0.72893   0.78093   0.26588   1.000
    O502    O    0.11947   0.26075   0.28573   1.000
    O503    O    0.15603   0.18818   0.28606   1.000
    O504    O    0.72041   0.82201   0.28648   1.000
    O505    O    0.77845   0.78743   0.28687   1.000
    O506    O    0.75272   0.01849   0.29217   1.000
    O507    O    0.08984   0.32361   0.29008   1.000
    O508    O    0.18798   0.12604   0.29092   1.000
    O509    O    0.87150   0.04659   0.30417   1.000
    O510    O    0.80867   0.73307   0.31517   1.000
    O511    O    0.14271   0.31014   0.30975   1.000
    O512    O    0.08347   0.28802   0.31757   1.000
    O513    O    0.20639   0.16340   0.30877   1.000
    O514    O    0.14989   0.14026   0.32316   1.000
    O515    O    0.80393   0.05631   0.30978   1.000
    O516    O    0.72923   0.07220   0.31792   1.000
    O517    O    0.85132   0.09439   0.32897   1.000
    O518    O    0.17836   0.35625   0.33205   1.000
    O519    O    0.66388   0.08992   0.32620   1.000
    O520    O    0.70246   0.12581   0.34509   1.000
    O521    O    0.76581   0.68013   0.33747   1.000
    O522    O    0.84107   0.67577   0.33810   1.000
    O523    O    0.69849   0.67953   0.33886   1.000
    O524    O    0.90754   0.66821   0.34055   1.000
    O525    O    0.28268   0.39489   0.34861   1.000
    O526    O    0.24495   0.01985   0.35546   1.000
    O527    O    0.13128   0.09109   0.35812   1.000
    O528    O    0.88946   0.13061   0.34777   1.000
    O529    O    0.82442   0.14768   0.35692   1.000
    O530    O    0.72681   0.62585   0.35982   1.000
    O531    O    0.87674   0.61721   0.36089   1.000
    O532    O    0.21562   0.40117   0.35120   1.000
    O533    O    0.13987   0.41205   0.35535   1.000
    O534    O    0.25690   0.44476   0.37112   1.000
    O535    O    0.07256   0.42584   0.36100   1.000
    O536    O    0.75025   0.16322   0.36491   1.000
    O537    O    0.68343   0.17414   0.36977   1.000
    O538    O    0.10609   0.46643   0.37930   1.000
    O539    O    0.18040   0.03151   0.37027   1.000
    O540    O    0.22593   0.97128   0.38333   1.000
    O541    O    0.79802   0.20098   0.38740   1.000
    O542    O    0.10896   0.03963   0.38909   1.000
    O543    O    0.69649   0.57501   0.38048   1.000
    O544    O    0.76278   0.56662   0.38282   1.000
    O545    O    0.90397   0.56281   0.38176   1.000
    O546    O    0.83744   0.56235   0.38326   1.000
    O547    O    0.28924   0.48564   0.39029   1.000
    O548    O    0.22271   0.49876   0.39614   1.000
    O549    O    0.79926   0.50469   0.40706   1.000
    O550    O    0.14766   0.50956   0.40016   1.000
    O551    O    0.08093   0.51545   0.40240   1.000
    O552    O    0.26247   0.91560   0.39693   1.000
    O553    O    0.20010   0.91838   0.41478   1.000
    O554    O    0.84226   0.23922   0.40785   1.000
    O555    O    0.77241   0.24665   0.41813   1.000
    O556    O    0.04645   0.04310   0.40734   1.000
    O557    O    0.08341   0.98751   0.42054   1.000
    O558    O    0.18872   0.55218   0.42449   1.000
    O559    O    0.88748   0.28136   0.44049   1.000
    O560    O    0.83487   0.44486   0.42618   1.000
    O561    O    0.76429   0.45299   0.43357   1.000
    O562    O    0.88311   0.37048   0.44993   1.000
    O563    O    0.05634   0.22587   0.43928   1.000
    O564    O    0.73097   0.29450   0.46203   1.000
    O565    O    0.12902   0.92649   0.43317   1.000
    O566    O    0.17401   0.86192   0.44656   1.000
    O567    O    0.17641   0.21429   0.44167   1.000
    O568    O    0.06506   0.93793   0.44785   1.000
    O569    O    0.22776   0.59242   0.44654   1.000
    O570    O    0.15728   0.59922   0.45354   1.000
    O571    O    0.72587   0.38433   0.46858   1.000
    O572    O    0.11493   0.24389   0.44933   1.000
    O573    O    0.04738   0.27885   0.45871   1.000
    O574    O    0.17685   0.26914   0.46218   1.000
    O575    O    0.27108   0.63695   0.47851   1.000
    O576    O    0.30217   0.26309   0.46753   1.000
    O577    O    0.46100   0.24612   0.46853   1.000
    O578    O    0.21681   0.80268   0.46202   1.000
    O579    O    0.14725   0.80716   0.47346   1.000
    O580    O    0.26569   0.72874   0.48442   1.000
    O581    O    0.44051   0.58715   0.47088   1.000
    O582    O    0.58028   0.24577   0.47085   1.000
    O583    O    0.56162   0.57864   0.47154   1.000
    O584    O    0.11394   0.64947   0.49677   1.000
    O585    O    0.95911   0.31276   0.46995   1.000
    O586    O    0.04055   0.33798   0.48058   1.000
    O587    O    0.89055   0.26107   0.49289   1.000
    O588    O    0.88608   0.35053   0.50324   1.000
    O589    O    0.24087   0.29424   0.47504   1.000
    O590    O    0.16965   0.33045   0.48472   1.000
    O591    O    0.30783   0.31681   0.48613   1.000
    O592    O    0.51589   0.27030   0.47811   1.000
    O593    O    0.44656   0.30316   0.48752   1.000
    O594    O    0.57625   0.29936   0.48931   1.000
    O595    O    0.49930   0.60706   0.47960   1.000
    O596    O    0.43115   0.64046   0.48980   1.000
    O597    O    0.56125   0.63437   0.49105   1.000
    O598    O    0.10947   0.73893   0.50712   1.000
    O599    O    0.84431   0.61373   0.49511   1.000
    O600    O    0.68636   0.62927   0.49541   1.000
    O601    O    0.96302   0.60987   0.49959   1.000
    O602    O    0.10091   0.36432   0.49375   1.000
    O603    O    0.03700   0.39013   0.50038   1.000
    O604    O    0.65806   0.32797   0.49655   1.000
    O605    O    0.73433   0.27126   0.51558   1.000
    O606    O    0.72893   0.36304   0.52149   1.000
    O607    O    0.15571   0.38626   0.50490   1.000
    O608    O    0.37484   0.33948   0.49700   1.000
    O609    O    0.31366   0.37073   0.50456   1.000
    O610    O    0.43877   0.36562   0.50897   1.000
    O611    O    0.56886   0.35954   0.51016   1.000
    O612    O    0.34196   0.67203   0.50340   1.000
    O613    O    0.42377   0.70064   0.51065   1.000
    O614    O    0.62518   0.66051   0.50301   1.000
    O615    O    0.55346   0.69683   0.51249   1.000
    O616    O    0.69219   0.68318   0.51387   1.000
    O617    O    0.89912   0.63567   0.50626   1.000
    O618    O    0.83037   0.66954   0.51529   1.000
    O619    O    0.27416   0.61568   0.53143   1.000
    O620    O    0.26904   0.70555   0.53796   1.000
    O621    O    0.95947   0.66201   0.51943   1.000
    O622    O    0.85277   0.19284   0.52655   1.000
    O623    O    0.50071   0.39294   0.52041   1.000
    O624    O    0.43839   0.42135   0.52846   1.000
    O625    O    0.55951   0.41284   0.52914   1.000
    O626    O    0.48413   0.72969   0.52190   1.000
    O627    O    0.41974   0.75422   0.52917   1.000
    O628    O    0.53902   0.75388   0.53147   1.000
    O629    O    0.75915   0.70574   0.52496   1.000
    O630    O    0.69785   0.73689   0.53248   1.000
    O631    O    0.82317   0.73084   0.53783   1.000
    O632    O    0.04091   0.68723   0.53006   1.000
    O633    O    0.11691   0.62953   0.55007   1.000
    O634    O    0.11253   0.71864   0.55952   1.000
    O635    O    0.95264   0.72113   0.54130   1.000
    O636    O    0.84274   0.40077   0.54647   1.000
    O637    O    0.78321   0.19731   0.53798   1.000
    O638    O    0.82601   0.13807   0.55345   1.000
    O639    O    0.93496   0.06206   0.55217   1.000
    O640    O    0.77225   0.40757   0.55347   1.000
    O641    O    0.88509   0.75609   0.55068   1.000
    O642    O    0.82360   0.78568   0.55834   1.000
    O643    O    0.94368   0.77412   0.56073   1.000
    O644    O    0.23573   0.54702   0.56643   1.000
    O645    O    0.81129   0.44781   0.57552   1.000
    O646    O    0.87100   0.07351   0.56685   1.000
    O647    O    0.91661   0.01249   0.57948   1.000
    O648    O    0.79992   0.08162   0.58523   1.000
    O649    O    0.22759   0.75342   0.58186   1.000
    O650    O    0.16514   0.55516   0.57382   1.000
    O651    O    0.20075   0.49531   0.59290   1.000
    O652    O    0.91907   0.48454   0.59724   1.000
    O653    O    0.15774   0.76080   0.59216   1.000
    O654    O    0.95357   0.95690   0.59268   1.000
    O655    O    0.85235   0.49043   0.59949   1.000
    O656    O    0.77730   0.50122   0.60387   1.000
    O657    O    0.89105   0.96037   0.61093   1.000
    O658    O    0.20197   0.79905   0.61260   1.000
    O659    O    0.73755   0.08439   0.60307   1.000
    O660    O    0.77408   0.02872   0.61667   1.000
    O661    O    0.89390   0.53355   0.62036   1.000
    O662    O    0.71076   0.51434   0.60972   1.000
    O663    O    0.16255   0.43765   0.61669   1.000
    O664    O    0.23722   0.43336   0.61714   1.000
    O665    O    0.09603   0.43720   0.61819   1.000
    O666    O    0.30351   0.42497   0.61949   1.000
    O667    O    0.74310   0.55522   0.62889   1.000
    O668    O    0.31656   0.82591   0.63023   1.000
    O669    O    0.12324   0.38280   0.63889   1.000
    O670    O    0.27317   0.37413   0.64017   1.000
    O671    O    0.81961   0.96849   0.62974   1.000
    O672    O    0.86873   0.90891   0.64189   1.000
    O673    O    0.24973   0.83681   0.63511   1.000
    O674    O    0.17557   0.85233   0.64310   1.000
    O675    O    0.75505   0.98015   0.64454   1.000
    O676    O    0.92743   0.57415   0.63901   1.000
    O677    O    0.86013   0.58793   0.64466   1.000
    O678    O    0.29752   0.87422   0.65492   1.000
    O679    O    0.78437   0.59881   0.64882   1.000
    O680    O    0.71730   0.60509   0.65140   1.000
    O681    O    0.11052   0.86939   0.65226   1.000
    O682    O    0.09243   0.33180   0.65921   1.000
    O683    O    0.15889   0.32423   0.66168   1.000
    O684    O    0.82162   0.64374   0.66766   1.000
    O685    O    0.30148   0.32045   0.66112   1.000
    O686    O    0.23416   0.31986   0.66251   1.000
    O687    O    0.14866   0.90561   0.67106   1.000
    O688    O    0.85010   0.85974   0.67684   1.000
    O689    O    0.91650   0.71197   0.68241   1.000
    O690    O    0.19128   0.26694   0.68482   1.000
    O691    O    0.33609   0.91010   0.67381   1.000
    O692    O    0.27075   0.92782   0.68210   1.000
    O693    O    0.85727   0.68985   0.68993   1.000
    O694    O    0.79359   0.83660   0.69121   1.000
    O695    O    0.19605   0.94369   0.69025   1.000
    O696    O    0.12848   0.95339   0.69588   1.000
    O697    O    0.24726   0.98151   0.70786   1.000
    O698    O    0.81198   0.87396   0.70907   1.000
    O699    O    0.84393   0.81181   0.71393   1.000
    O700    O    0.91012   0.67638   0.70990   1.000
    O701    O    0.88049   0.73924   0.71426   1.000
    O702    O    0.22150   0.21259   0.71308   1.000
    O703    O    0.27953   0.17800   0.71347   1.000
    O704    O    0.96054   0.82512   0.73445   1.000
    O705    O    0.22427   0.03511   0.73536   1.000
    O706    O    0.16711   0.07124   0.73602   1.000
    O707    O    0.27103   0.21909   0.73406   1.000
    O708    O    0.24073   0.16345   0.74792   1.000
    O709    O    0.90345   0.79350   0.74005   1.000
    O710    O    0.83566   0.76082   0.75194   1.000
    O711    O    0.20803   0.09552   0.75914   1.000
    O712    O    0.17653   0.03840   0.76414   1.000
    O713    O    0.92819   0.83475   0.76274   1.000
    O714    O    0.96446   0.77770   0.76335   1.000
    O715    O    0.78030   0.73047   0.76639   1.000
    O716    O    0.26190   0.11801   0.78545   1.000
    O717    O    0.18917   0.15437   0.78568   1.000
    O718    O    0.82181   0.72263   0.78670   1.000
    O719    O    0.78699   0.78056   0.78685   1.000
    O720    O    0.01840   0.75515   0.79069   1.000
    O721    O    0.32478   0.08834   0.78993   1.000
    O722    O    0.12678   0.18593   0.79048   1.000
    O723    O    0.04553   0.87412   0.80287   1.000
    O724    O    0.73258   0.81131   0.81491   1.000
    O725    O    0.31099   0.14086   0.81014   1.000
    O726    O    0.28885   0.08159   0.81727   1.000
    O727    O    0.16382   0.20420   0.80865   1.000
    O728    O    0.14079   0.14751   0.82264   1.000
    O729    O    0.05585   0.80663   0.80832   1.000
    O730    O    0.07247   0.73207   0.81622   1.000
    O731    O    0.09350   0.85424   0.82761   1.000
    O732    O    0.35689   0.17640   0.83270   1.000
    O733    O    0.09089   0.66689   0.82425   1.000
    O734    O    0.12634   0.70566   0.84328   1.000
    O735    O    0.67477   0.84420   0.83738   1.000
    O736    O    0.67984   0.76878   0.83770   1.000
    O737    O    0.66660   0.91082   0.83880   1.000
    O738    O    0.67989   0.70139   0.84010   1.000
    O739    O    0.39642   0.28071   0.84831   1.000
    O740    O    0.01996   0.24211   0.85501   1.000
    O741    O    0.12932   0.89259   0.84652   1.000
    O742    O    0.14697   0.82769   0.85553   1.000
    O743    O    0.09156   0.12864   0.85756   1.000
    O744    O    0.61565   0.88031   0.85944   1.000
    O745    O    0.62569   0.73009   0.86046   1.000
    O746    O    0.40206   0.21369   0.85138   1.000
    O747    O    0.41224   0.13800   0.85614   1.000
    O748    O    0.44585   0.25502   0.87119   1.000
    O749    O    0.16320   0.75366   0.86328   1.000
    O750    O    0.17480   0.68694   0.86789   1.000
    O751    O    0.42537   0.07075   0.86241   1.000
    O752    O    0.46610   0.10438   0.88092   1.000
    O753    O    0.20028   0.80155   0.88608   1.000
    O754    O    0.03193   0.17769   0.86987   1.000
    O755    O    0.97163   0.22310   0.88308   1.000
    O756    O    0.04039   0.10643   0.88878   1.000
    O757    O    0.56075   0.90791   0.87950   1.000
    O758    O    0.56092   0.84132   0.88201   1.000
    O759    O    0.57487   0.70009   0.88144   1.000
    O760    O    0.56589   0.76652   0.88271   1.000
    O761    O    0.48684   0.28746   0.89024   1.000
    O762    O    0.49935   0.22098   0.89666   1.000
    O763    O    0.50342   0.80337   0.90622   1.000
    O764    O    0.91592   0.25954   0.89679   1.000
    O765    O    0.50943   0.14601   0.90162   1.000
    O766    O    0.51461   0.07937   0.90444   1.000
    O767    O    0.91895   0.19730   0.91473   1.000
    O768    O    0.23818   0.84584   0.90676   1.000
    O769    O    0.24557   0.77603   0.91698   1.000
    O770    O    0.04419   0.04410   0.90720   1.000
    O771    O    0.98854   0.08094   0.92046   1.000
    O772    O    0.55236   0.18708   0.92540   1.000
    O773    O    0.27984   0.89091   0.93987   1.000
    O774    O    0.44315   0.83902   0.92502   1.000
    O775    O    0.45185   0.76858   0.93278   1.000
    O776    O    0.36851   0.88678   0.94911   1.000
    O777    O    0.29372   0.73446   0.96069   1.000
    O778    O    0.22514   0.05985   0.93898   1.000
    O779    O    0.92741   0.12639   0.93320   1.000
    O780    O    0.86269   0.17112   0.94672   1.000
    O781    O    0.21421   0.17982   0.94117   1.000
    O782    O    0.93922   0.06259   0.94797   1.000
    O783    O    0.38370   0.72971   0.96749   1.000
    O784    O    0.59253   0.22605   0.94760   1.000
    O785    O    0.59947   0.15562   0.95440   1.000
    O786    O    0.24326   0.11826   0.94915   1.000
    O787    O    0.27763   0.05062   0.95889   1.000
    O788    O    0.26863   0.18000   0.96211   1.000
    O789    O    0.24832   0.46388   0.96530   1.000
    O790    O    0.26318   0.30517   0.96710   1.000
    O791    O    0.24743   0.58314   0.96740   1.000
    O792    O    0.80313   0.21358   0.96236   1.000
    O793    O    0.80832   0.14411   0.97383   1.000
    O794    O    0.58882   0.43669   0.97124   1.000
    O795    O    0.57995   0.55776   0.97144   1.000
    O796    O    0.31100   0.96233   0.97006   1.000
    O797    O    0.33618   0.04350   0.98133   1.000
    O798    O    0.29394   0.24387   0.97493   1.000
    O799    O    0.32933   0.17252   0.98523   1.000
    O800    O    0.27172   0.51887   0.97530   1.000
    O801    O    0.30417   0.44967   0.98552   1.000
    O802    O    0.31698   0.31092   0.98561   1.000
    O803    O    0.29990   0.57939   0.98696   1.000
    O804    O    0.60808   0.49563   0.98017   1.000
    O805    O    0.32771   0.66140   0.99489   1.000
    O806    O    0.36252   0.10366   0.99471   1.000
    O807    O    0.33984   0.37805   0.99600   1.000
    O808    O    0.80883   0.32132   0.48215   1.000
    O809    O    0.32017   0.81218   0.98125   1.000
    O810    O    0.67977   0.18781   0.01876   1.000
    O811    O    0.19119   0.67869   0.51786   1.000
loop_
    _geom_bond_atom_site_label_1
    _geom_bond_atom_site_label_2
    _geom_bond_distance
    _geom_bond_site_symmetry_2
    _ccdc_geom_bond_type
    C328   O380      1.03220      .   S
    C4     O380      1.03220      .   S
    C328   O381      0.67563      .   S
    C276   O381      0.67563      .   S
    C328   O382      0.67381  1_554   S
    C277   O382      0.67381      .   S
    C274   O383      0.72739      .   S
    C273   O383      0.72739      .   S
    C274   O384      0.70463      .   S
    C275   O384      0.70463      .   S
    C274   O385      0.70410  1_554   S
    C278   O385      0.70410      .   S
    C268   O386      0.69105      .   S
    C267   O386      0.69105      .   S
    C268   O387      0.70294      .   S
    C269   O387      0.70294      .   S
    C268   O388      0.54323  1_554   S
    C101   O388      0.54323      .   S
    C273   O389      0.67572      .   S
    C272   O389      0.67572      .   S
    C273   O390      0.54591  1_554   S
    C105   O390      0.54591      .   S
    C267   O391      0.67492      .   S
    C329   O391      0.67492      .   S
    C267   O392      0.54405  1_554   S
    C100   O392      0.54405      .   S
    C4     O393      1.08214      .   S
    C356   O393      1.08214      .   S
    C4     O394      1.02506      .   S
    C364   O394      1.02506      .   S
    C4     O395      1.01842  1_554   S
    C372   O395      1.01842      .   S
    C4     O396      1.05060  1_554   S
    C378   O396      1.05060      .   S
    C66    O397      0.54381      .   S
    C222   O397      0.54381  1_556   S
    C71    O398      0.54591      .   S
    C228   O398      0.54591  1_556   S
    C343   O399      0.63803      .   S
    C176   O399      0.63803      .   S
    C343   O400      1.01466  1_554   S
    C3     O400      1.01466      .   S
    C67    O401      0.54280      .   S
    C223   O401      0.54280  1_556   S
    C233   O402      0.69418      .   S
    C232   O402      0.69418      .   S
    C233   O403      0.54525      .   S
    C75    O403      0.54525      .   S
    C233   O404      0.70421      .   S
    C229   O404      0.70421  1_556   S
    C232   O405      0.54500      .   S
    C74    O405      0.54500      .   S
    C232   O406      0.67378      .   S
    C326   O406      0.67378  1_556   S
    C276   O407      0.69152      .   S
    C275   O407      0.69152      .   S
    C276   O408      0.54431      .   S
    C107   O408      0.54431      .   S
    C272   O409      0.72696      .   S
    C269   O409      0.72696      .   S
    C272   O410      0.54645      .   S
    C104   O410      0.54645      .   S
    C275   O411      0.54437      .   S
    C106   O411      0.54437      .   S
    C269   O412      0.70386      .   S
    C270   O412      0.70386      .   S
    C5     O413      1.02343      .   S
    C329   O413      1.02343  1_565   S
    C5     O414      1.02262      .   S
    C357   O414      1.02262      .   S
    C5     O415      1.05746      .   S
    C363   O415      1.05746      .   S
    C5     O416      1.07261  1_554   S
    C373   O416      1.07261      .   S
    C5     O417      1.01510      .   S
    C379   O417      1.01510  1_556   S
    C329   O418      0.67417      .   S
    C271   O418      0.67417      .   S
    C337   O419      0.63622      .   S
    C160   O419      0.63622      .   S
    C337   O420      1.07298      .   S
    C3     O420      1.07298  1_556   S
    C342   O421      0.63654      .   S
    C176   O421      0.63654      .   S
    C342   O422      1.05069      .   S
    C2     O422      1.05069  1_556   S
    C176   O423      0.74988      .   S
    C173   O423      0.74988      .   S
    C30    O424      0.54441      .   S
    C174   O424      0.54441      .   S
    C336   O425      0.63990      .   S
    C160   O425      0.63990      .   S
    C336   O426      1.01847      .   S
    C2     O426      1.01847  1_556   S
    C270   O427      0.69303      .   S
    C271   O427      0.69303      .   S
    C270   O428      0.54513      .   S
    C102   O428      0.54513      .   S
    C271   O429      0.54433      .   S
    C103   O429      0.54433      .   S
    C160   O430      0.74778      .   S
    C157   O430      0.74778      .   S
    C356   O431      0.63637      .   S
    C234   O431      0.63637      .   S
    C174   O432      0.70310      .   S
    C173   O432      0.70310      .   S
    C174   O433      0.69316      .   S
    C175   O433      0.69316  1_655   S
    C173   O434      0.69938      .   S
    C172   O434      0.69938      .   S
    C364   O435      0.63964      .   S
    C258   O435      0.63964      .   S
    C357   O436      0.63987      .   S
    C234   O436      0.63987      .   S
    C234   O437      0.75030      .   S
    C235   O437      0.75030      .   S
    C18    O438      0.54398      .   S
    C158   O438      0.54398      .   S
    C363   O439      0.63628      .   S
    C258   O439      0.63628      .   S
    C31    O440      0.54500      .   S
    C175   O440      0.54500      .   S
    C157   O441      0.69998      .   S
    C158   O441      0.69998      .   S
    C157   O442      0.70198      .   S
    C156   O442      0.70198      .   S
    C175   O443      0.70272      .   S
    C170   O443      0.70272      .   S
    C258   O444      0.74916      .   S
    C255   O444      0.74916      .   S
    C172   O445      0.54485      .   S
    C29    O445      0.54485      .   S
    C172   O446      0.69889      .   S
    C171   O446      0.69889  1_655   S
    C158   O447      0.69754      .   S
    C159   O447      0.69754      .   S
    C17    O448      0.54435      .   S
    C156   O448      0.54435      .   S
    C235   O449      0.69988      .   S
    C236   O449      0.69988      .   S
    C235   O450      0.70270      .   S
    C240   O450      0.70270      .   S
    C76    O451      0.54458      .   S
    C236   O451      0.54458      .   S
    C156   O452      0.69296      .   S
    C155   O452      0.69296      .   S
    C79    O453      0.54314      .   S
    C240   O453      0.54314      .   S
    C91    O454      0.54424      .   S
    C254   O454      0.54424      .   S
    C236   O455      0.69828      .   S
    C237   O455      0.69828      .   S
    C240   O456      0.69281      .   S
    C239   O456      0.69281      .   S
    C170   O457      0.70109      .   S
    C171   O457      0.70109      .   S
    C170   O458      0.68764      .   S
    C341   O458      0.68764      .   S
    C171   O459      0.54386      .   S
    C28    O459      0.54386      .   S
    C255   O460      0.70303      .   S
    C254   O460      0.70303      .   S
    C255   O461      0.69925      .   S
    C256   O461      0.69925      .   S
    C159   O462      0.54423      .   S
    C19    O462      0.54423      .   S
    C159   O463      0.70026      .   S
    C154   O463      0.70026      .   S
    C254   O464      0.69301      .   S
    C253   O464      0.69301      .   S
    C155   O465      0.70257      .   S
    C154   O465      0.70257      .   S
    C155   O466      0.54493      .   S
    C16    O466      0.54493      .   S
    C92    O467      0.54457      .   S
    C256   O467      0.54457      .   S
    C154   O468      0.68379      .   S
    C335   O468      0.68379      .   S
    C237   O469      0.54420      .   S
    C77    O469      0.54420      .   S
    C237   O470      0.70155      .   S
    C238   O470      0.70155      .   S
    C239   O471      0.54493      .   S
    C78    O471      0.54493      .   S
    C239   O472      0.70176      .   S
    C238   O472      0.70176      .   S
    C341   O473      0.71880      .   S
    C169   O473      0.71880      .   S
    C256   O474      0.69811      .   S
    C257   O474      0.69811      .   S
    C15    O475      0.55060      .   S
    C153   O475      0.55060      .   S
    C238   O476      0.68566      .   S
    C358   O476      0.68566      .   S
    C253   O477      0.54492      .   S
    C90    O477      0.54492      .   S
    C253   O478      0.70185      .   S
    C252   O478      0.70185      .   S
    C335   O479      0.71931      .   S
    C153   O479      0.71931      .   S
    C27    O480      0.55069      .   S
    C169   O480      0.55069      .   S
    C257   O481      0.70110      .   S
    C252   O481      0.70110      .   S
    C257   O482      0.54368      .   S
    C93    O482      0.54368      .   S
    C252   O483      0.68625      .   S
    C362   O483      0.68625  1_455   S
    C169   O484      0.54944      .   S
    C26    O484      0.54944      .   S
    C169   O485      0.76998      .   S
    C152   O485      0.76998      .   S
    C153   O486      0.55054      .   S
    C14    O486      0.55054      .   S
    C153   O487      0.77066      .   S
    C152   O487      0.77066      .   S
    C358   O488      0.71824      .   S
    C241   O488      0.71824      .   S
    C80    O489      0.55118      .   S
    C241   O489      0.55118      .   S
    C21    O490      0.54984      .   S
    C161   O490      0.54984      .   S
    C362   O491      0.71673      .   S
    C251   O491      0.71673      .   S
    C88    O492      0.55067      .   S
    C251   O492      0.55067      .   S
    C241   O493      0.54936      .   S
    C81    O493      0.54936      .   S
    C241   O494      0.76958      .   S
    C242   O494      0.76958      .   S
    C152   O495      0.76744      .   S
    C161   O495      0.76744      .   S
    C152   O496      0.76924      .   S
    C151   O496      0.76924      .   S
    C251   O497      0.76747      .   S
    C242   O497      0.76747      .   S
    C251   O498      0.55000      .   S
    C89    O498      0.55000      .   S
    C161   O499      0.55086      .   S
    C20    O499      0.55086      .   S
    C161   O500      0.71670      .   S
    C338   O500      0.71670      .   S
    C13    O501      0.54879      .   S
    C151   O501      0.54879      .   S
    C242   O502      0.76950      .   S
    C243   O502      0.76950      .   S
    C242   O503      0.76972      .   S
    C259   O503      0.76972      .   S
    C151   O504      0.55192      .   S
    C12    O504      0.55192      .   S
    C151   O505      0.71868      .   S
    C334   O505      0.71868      .   S
    C338   O506      0.68638  1_565   S
    C162   O506      0.68638      .   S
    C82    O507      0.54982      .   S
    C243   O507      0.54982      .   S
    C94    O508      0.54977      .   S
    C259   O508      0.54977      .   S
    C25    O509      0.54367      .   S
    C167   O509      0.54367      .   S
    C334   O510      0.68578      .   S
    C148   O510      0.68578      .   S
    C243   O511      0.71650      .   S
    C359   O511      0.71650      .   S
    C243   O512      0.55091      .   S
    C83    O512      0.55091      .   S
    C259   O513      0.55070      .   S
    C95    O513      0.55070      .   S
    C259   O514      0.71836      .   S
    C365   O514      0.71836      .   S
    C162   O515      0.70116      .   S
    C167   O515      0.70116      .   S
    C162   O516      0.70196      .   S
    C163   O516      0.70196      .   S
    C167   O517      0.69794      .   S
    C166   O517      0.69794      .   S
    C359   O518      0.68850      .   S
    C244   O518      0.68850      .   S
    C22    O519      0.54493      .   S
    C163   O519      0.54493      .   S
    C163   O520      0.69315      .   S
    C164   O520      0.69315      .   S
    C148   O521      0.70158      .   S
    C147   O521      0.70158      .   S
    C148   O522      0.70013      .   S
    C149   O522      0.70013      .   S
    C9     O523      0.54414      .   S
    C147   O523      0.54414      .   S
    C10    O524      0.54413      .   S
    C149   O524      0.54413      .   S
    C84    O525      0.54507      .   S
    C245   O525      0.54507      .   S
    C96    O526      0.54427      .   S
    C261   O526      0.54427      .   S
    C365   O527      0.68749      .   S
    C260   O527      0.68749      .   S
    C166   O528      0.54464      .   S
    C24    O528      0.54464      .   S
    C166   O529      0.69935      .   S
    C165   O529      0.69935      .   S
    C147   O530      0.69861      .   S
    C146   O530      0.69861      .   S
    C149   O531      0.69543      .   S
    C150   O531      0.69543      .   S
    C244   O532      0.70238      .   S
    C245   O532      0.70238      .   S
    C244   O533      0.70035      .   S
    C249   O533      0.70035      .   S
    C245   O534      0.69264      .   S
    C246   O534      0.69264      .   S
    C87    O535      0.54446      .   S
    C249   O535      0.54446      .   S
    C164   O536      0.70298      .   S
    C165   O536      0.70298      .   S
    C164   O537      0.54431      .   S
    C23    O537      0.54431      .   S
    C249   O538      0.69139      .   S
    C248   O538      0.69139      .   S
    C261   O539      0.70101      .   S
    C260   O539      0.70101      .   S
    C261   O540      0.69883  1_545   S
    C262   O540      0.69883      .   S
    C165   O541      0.74829      .   S
    C168   O541      0.74829      .   S
    C260   O542      0.70207      .   S
    C265   O542      0.70207      .   S
    C146   O543      0.54457      .   S
    C8     O543      0.54457      .   S
    C146   O544      0.69981      .   S
    C145   O544      0.69981      .   S
    C150   O545      0.54339      .   S
    C11    O545      0.54339      .   S
    C150   O546      0.70299      .   S
    C145   O546      0.70299      .   S
    C246   O547      0.54429      .   S
    C85    O547      0.54429      .   S
    C246   O548      0.70199      .   S
    C247   O548      0.70199      .   S
    C145   O549      0.75071      .   S
    C144   O549      0.75071      .   S
    C248   O550      0.70315      .   S
    C247   O550      0.70315      .   S
    C248   O551      0.54735      .   S
    C86    O551      0.54735      .   S
    C97    O552      0.54483      .   S
    C262   O552      0.54483      .   S
    C262   O553      0.69943      .   S
    C263   O553      0.69943      .   S
    C168   O554      0.63663      .   S
    C339   O554      0.63663      .   S
    C168   O555      0.63991      .   S
    C340   O555      0.63991      .   S
    C265   O556      0.54505      .   S
    C99    O556      0.54505      .   S
    C265   O557      0.69387  1_545   S
    C264   O557      0.69387      .   S
    C247   O558      0.74725      .   S
    C250   O558      0.74725      .   S
    C339   O559      1.05353      .   S
    C1     O559      1.05353      .   S
    C144   O560      0.64007      .   S
    C333   O560      0.64007      .   S
    C144   O561      0.63618      .   S
    C332   O561      0.63618      .   S
    C333   O562      1.01837      .   S
    C1     O562      1.01837      .   S
    C35    O563      0.54433      .   S
    C181   O563      0.54433      .   S
    C340   O564      1.02613      .   S
    C0     O564      1.02613      .   S
    C263   O565      0.70293      .   S
    C264   O565      0.70293      .   S
    C263   O566      0.74940      .   S
    C266   O566      0.74940      .   S
    C34    O567      0.54504      .   S
    C180   O567      0.54504      .   S
    C264   O568      0.54443      .   S
    C98    O568      0.54443      .   S
    C250   O569      0.64007      .   S
    C360   O569      0.64007      .   S
    C250   O570      0.63592      .   S
    C361   O570      0.63592      .   S
    C332   O571      1.09175      .   S
    C0     O571      1.09175      .   S
    C181   O572      0.69310      .   S
    C180   O572      0.69310      .   S
    C181   O573      0.67423      .   S
    C325   O573      0.67423      .   S
    C180   O574      0.70388      .   S
    C179   O574      0.70388      .   S
    C360   O575      1.01577      .   S
    C6     O575      1.01577      .   S
    C36    O576      0.54644      .   S
    C182   O576      0.54644      .   S
    C38    O577      0.54434      .   S
    C185   O577      0.54434      .   S
    C266   O578      0.63689      .   S
    C366   O578      0.63689      .   S
    C266   O579      0.63771      .   S
    C367   O579      0.63771      .   S
    C366   O580      1.04524      .   S
    C6     O580      1.04524      .   S
    C142   O581      0.54491      .   S
    C322   O581      0.54491      .   S
    C39    O582      0.54470      .   S
    C186   O582      0.54470      .   S
    C143   O583      0.54538      .   S
    C323   O583      0.54538      .   S
    C361   O584      1.07108      .   S
    C7     O584      1.07108      .   S
    C325   O585      1.02328  1_455   S
    C1     O585      1.02328      .   S
    C325   O586      0.67485      .   S
    C177   O586      0.67485      .   S
    C1     O587      1.01895      .   S
    C355   O587      1.01895      .   S
    C1     O588      1.07105      .   S
    C349   O588      1.07105      .   S
    C179   O589      0.72692      .   S
    C182   O589      0.72692      .   S
    C179   O590      0.70297      .   S
    C178   O590      0.70297      .   S
    C182   O591      0.67573      .   S
    C183   O591      0.67573      .   S
    C185   O592      0.69151      .   S
    C186   O592      0.69151      .   S
    C185   O593      0.70459      .   S
    C184   O593      0.70459      .   S
    C186   O594      0.67516      .   S
    C324   O594      0.67516      .   S
    C322   O595      0.69407      .   S
    C323   O595      0.69407      .   S
    C322   O596      0.67370      .   S
    C330   O596      0.67370      .   S
    C323   O597      0.70428      .   S
    C319   O597      0.70428      .   S
    C367   O598      1.01897      .   S
    C7     O598      1.01897      .   S
    C135   O599      0.54322      .   S
    C313   O599      0.54322      .   S
    C139   O600      0.54621      .   S
    C318   O600      0.54621      .   S
    C134   O601      0.54418      .   S
    C312   O601      0.54418      .   S
    C177   O602      0.69088      .   S
    C178   O602      0.69088      .   S
    C177   O603      0.54382      .   S
    C32    O603      0.54382      .   S
    C0     O604      1.03075      .   S
    C324   O604      1.03075      .   S
    C0     O605      1.04523      .   S
    C354   O605      1.04523      .   S
    C0     O606      1.01565      .   S
    C348   O606      1.01565      .   S
    C178   O607      0.54328      .   S
    C33    O607      0.54328      .   S
    C183   O608      0.72704      .   S
    C184   O608      0.72704      .   S
    C183   O609      0.54588      .   S
    C37    O609      0.54588      .   S
    C184   O610      0.70427      .   S
    C188   O610      0.70427      .   S
    C324   O611      0.67433      .   S
    C187   O611      0.67433      .   S
    C330   O612      1.03072      .   S
    C6     O612      1.03072      .   S
    C330   O613      0.67592      .   S
    C321   O613      0.67592      .   S
    C319   O614      0.72704      .   S
    C318   O614      0.72704      .   S
    C319   O615      0.70458      .   S
    C320   O615      0.70458      .   S
    C318   O616      0.67566      .   S
    C317   O616      0.67566      .   S
    C313   O617      0.69088      .   S
    C312   O617      0.69088      .   S
    C313   O618      0.70293      .   S
    C314   O618      0.70293      .   S
    C6     O619      1.09171      .   S
    C368   O619      1.09171      .   S
    C6     O620      1.02626      .   S
    C376   O620      1.02626      .   S
    C312   O621      0.67487      .   S
    C331   O621      0.67487      .   S
    C355   O622      0.63777      .   S
    C221   O622      0.63777      .   S
    C188   O623      0.69406      .   S
    C187   O623      0.69406      .   S
    C188   O624      0.54536      .   S
    C41    O624      0.54536      .   S
    C187   O625      0.54494      .   S
    C40    O625      0.54494      .   S
    C321   O626      0.69151      .   S
    C320   O626      0.69151      .   S
    C321   O627      0.54472      .   S
    C141   O627      0.54472      .   S
    C320   O628      0.54432      .   S
    C140   O628      0.54432      .   S
    C317   O629      0.72691      .   S
    C314   O629      0.72691      .   S
    C317   O630      0.54645      .   S
    C138   O630      0.54645      .   S
    C314   O631      0.70389      .   S
    C315   O631      0.70389      .   S
    C7     O632      1.02328      .   S
    C331   O632      1.02328  1_655   S
    C7     O633      1.01821      .   S
    C369   O633      1.01821      .   S
    C7     O634      1.05357      .   S
    C375   O634      1.05357      .   S
    C331   O635      0.67424      .   S
    C316   O635      0.67424      .   S
    C349   O636      0.63591      .   S
    C205   O636      0.63591      .   S
    C354   O637      0.63689      .   S
    C221   O637      0.63689      .   S
    C221   O638      0.74940      .   S
    C218   O638      0.74940      .   S
    C64    O639      0.54446      .   S
    C219   O639      0.54446      .   S
    C348   O640      0.64008      .   S
    C205   O640      0.64008      .   S
    C315   O641      0.69313      .   S
    C316   O641      0.69313      .   S
    C315   O642      0.54506      .   S
    C136   O642      0.54506      .   S
    C316   O643      0.54432      .   S
    C137   O643      0.54432      .   S
    C368   O644      0.63615      .   S
    C279   O644      0.63615      .   S
    C205   O645      0.74733      .   S
    C202   O645      0.74733      .   S
    C219   O646      0.70293      .   S
    C218   O646      0.70293      .   S
    C219   O647      0.69387      .   S
    C220   O647      0.69387  1_565   S
    C218   O648      0.69945      .   S
    C217   O648      0.69945      .   S
    C376   O649      0.63987      .   S
    C303   O649      0.63987      .   S
    C369   O650      0.64007      .   S
    C279   O650      0.64007      .   S
    C279   O651      0.75034      .   S
    C280   O651      0.75034      .   S
    C52    O652      0.54392      .   S
    C203   O652      0.54392      .   S
    C375   O653      0.63661      .   S
    C303   O653      0.63661      .   S
    C65    O654      0.54505      .   S
    C220   O654      0.54505      .   S
    C202   O655      0.69985      .   S
    C203   O655      0.69985      .   S
    C202   O656      0.70194      .   S
    C201   O656      0.70194      .   S
    C220   O657      0.70212      .   S
    C215   O657      0.70212      .   S
    C303   O658      0.74836      .   S
    C300   O658      0.74836      .   S
    C217   O659      0.54483      .   S
    C63    O659      0.54483      .   S
    C217   O660      0.69882      .   S
    C216   O660      0.69882  1_565   S
    C203   O661      0.69769      .   S
    C204   O661      0.69769      .   S
    C51    O662      0.54428      .   S
    C201   O662      0.54428      .   S
    C280   O663      0.70311      .   S
    C285   O663      0.70311      .   S
    C280   O664      0.70006      .   S
    C281   O664      0.70006      .   S
    C113   O665      0.54348      .   S
    C285   O665      0.54348      .   S
    C110   O666      0.54463      .   S
    C281   O666      0.54463      .   S
    C201   O667      0.69274      .   S
    C200   O667      0.69274      .   S
    C125   O668      0.54426      .   S
    C299   O668      0.54426      .   S
    C285   O669      0.69290      .   S
    C284   O669      0.69290      .   S
    C281   O670      0.69861      .   S
    C282   O670      0.69861      .   S
    C215   O671      0.70100      .   S
    C216   O671      0.70100      .   S
    C215   O672      0.68747      .   S
    C353   O672      0.68747      .   S
    C300   O673      0.70295      .   S
    C299   O673      0.70295      .   S
    C300   O674      0.69935      .   S
    C301   O674      0.69935      .   S
    C216   O675      0.54423      .   S
    C62    O675      0.54423      .   S
    C204   O676      0.54432      .   S
    C53    O676      0.54432      .   S
    C204   O677      0.70038      .   S
    C199   O677      0.70038      .   S
    C299   O678      0.69316      .   S
    C298   O678      0.69316      .   S
    C200   O679      0.70238      .   S
    C199   O679      0.70238      .   S
    C200   O680      0.54502      .   S
    C50    O680      0.54502      .   S
    C126   O681      0.54466      .   S
    C301   O681      0.54466      .   S
    C284   O682      0.54492      .   S
    C112   O682      0.54492      .   S
    C284   O683      0.70191      .   S
    C283   O683      0.70191      .   S
    C199   O684      0.68348      .   S
    C347   O684      0.68348      .   S
    C282   O685      0.54412      .   S
    C111   O685      0.54412      .   S
    C282   O686      0.70157      .   S
    C283   O686      0.70157      .   S
    C301   O687      0.69798      .   S
    C302   O687      0.69798      .   S
    C353   O688      0.71803      .   S
    C214   O688      0.71803      .   S
    C49    O689      0.55027      .   S
    C198   O689      0.55027      .   S
    C283   O690      0.68581      .   S
    C370   O690      0.68581      .   S
    C298   O691      0.54493      .   S
    C124   O691      0.54493      .   S
    C298   O692      0.70196      .   S
    C297   O692      0.70196      .   S
    C347   O693      0.71943      .   S
    C198   O693      0.71943      .   S
    C61    O694      0.55049      .   S
    C214   O694      0.55049      .   S
    C302   O695      0.70113      .   S
    C297   O695      0.70113      .   S
    C302   O696      0.54369      .   S
    C127   O696      0.54369      .   S
    C297   O697      0.68643      .   S
    C374   O697      0.68643  1_545   S
    C214   O698      0.55012      .   S
    C60    O698      0.55012      .   S
    C214   O699      0.76998      .   S
    C197   O699      0.76998      .   S
    C198   O700      0.55032      .   S
    C48    O700      0.55032      .   S
    C198   O701      0.77010      .   S
    C197   O701      0.77010      .   S
    C370   O702      0.71808      .   S
    C286   O702      0.71808      .   S
    C114   O703      0.55117      .   S
    C286   O703      0.55117      .   S
    C55    O704      0.54992      .   S
    C206   O704      0.54992      .   S
    C374   O705      0.71669      .   S
    C296   O705      0.71669      .   S
    C122   O706      0.55083      .   S
    C296   O706      0.55083      .   S
    C286   O707      0.54933      .   S
    C115   O707      0.54933      .   S
    C286   O708      0.77000      .   S
    C287   O708      0.77000      .   S
    C197   O709      0.76744      .   S
    C206   O709      0.76744      .   S
    C197   O710      0.76904      .   S
    C196   O710      0.76904      .   S
    C296   O711      0.76745      .   S
    C287   O711      0.76745      .   S
    C296   O712      0.54984      .   S
    C123   O712      0.54984      .   S
    C206   O713      0.55077      .   S
    C54    O713      0.55077      .   S
    C206   O714      0.71678      .   S
    C350   O714      0.71678      .   S
    C47    O715      0.54894      .   S
    C196   O715      0.54894      .   S
    C287   O716      0.77044      .   S
    C288   O716      0.77044      .   S
    C287   O717      0.76998      .   S
    C304   O717      0.76998      .   S
    C196   O718      0.55167      .   S
    C46    O718      0.55167      .   S
    C196   O719      0.71869      .   S
    C346   O719      0.71869      .   S
    C350   O720      0.68624  1_655   S
    C207   O720      0.68624      .   S
    C116   O721      0.55035      .   S
    C288   O721      0.55035      .   S
    C128   O722      0.54994      .   S
    C304   O722      0.54994      .   S
    C59    O723      0.54367      .   S
    C212   O723      0.54367      .   S
    C346   O724      0.68555      .   S
    C193   O724      0.68555      .   S
    C288   O725      0.71947      .   S
    C371   O725      0.71947      .   S
    C288   O726      0.55024      .   S
    C117   O726      0.55024      .   S
    C304   O727      0.55064      .   S
    C129   O727      0.55064      .   S
    C304   O728      0.71880      .   S
    C377   O728      0.71880      .   S
    C207   O729      0.70111      .   S
    C212   O729      0.70111      .   S
    C207   O730      0.70187      .   S
    C208   O730      0.70187      .   S
    C212   O731      0.69809      .   S
    C211   O731      0.69809      .   S
    C371   O732      0.68327      .   S
    C289   O732      0.68327      .   S
    C56    O733      0.54493      .   S
    C208   O733      0.54493      .   S
    C208   O734      0.69301      .   S
    C209   O734      0.69301      .   S
    C193   O735      0.70178      .   S
    C194   O735      0.70178      .   S
    C193   O736      0.70154      .   S
    C192   O736      0.70154      .   S
    C44    O737      0.54491      .   S
    C194   O737      0.54491      .   S
    C43    O738      0.54415      .   S
    C192   O738      0.54415      .   S
    C118   O739      0.54505      .   S
    C290   O739      0.54505      .   S
    C130   O740      0.54428      .   S
    C306   O740      0.54428      .   S
    C211   O741      0.54458      .   S
    C58    O741      0.54458      .   S
    C211   O742      0.69929      .   S
    C210   O742      0.69929      .   S
    C377   O743      0.68764      .   S
    C305   O743      0.68764      .   S
    C194   O744      0.69280      .   S
    C195   O744      0.69280      .   S
    C192   O745      0.69840      .   S
    C191   O745      0.69840      .   S
    C289   O746      0.70283      .   S
    C290   O746      0.70283      .   S
    C289   O747      0.70054      .   S
    C294   O747      0.70054      .   S
    C290   O748      0.69294      .   S
    C291   O748      0.69294      .   S
    C209   O749      0.70304      .   S
    C210   O749      0.70304      .   S
    C209   O750      0.54420      .   S
    C57    O750      0.54420      .   S
    C121   O751      0.54450      .   S
    C294   O751      0.54450      .   S
    C294   O752      0.69762      .   S
    C293   O752      0.69762      .   S
    C210   O753      0.74835      .   S
    C213   O753      0.74835      .   S
    C306   O754      0.70108      .   S
    C305   O754      0.70108      .   S
    C306   O755      0.69888  1_455   S
    C307   O755      0.69888      .   S
    C305   O756      0.70209      .   S
    C310   O756      0.70209      .   S
    C195   O757      0.54314      .   S
    C45    O757      0.54314      .   S
    C195   O758      0.70270      .   S
    C190   O758      0.70270      .   S
    C191   O759      0.54456      .   S
    C42    O759      0.54456      .   S
    C191   O760      0.69985      .   S
    C190   O760      0.69985      .   S
    C291   O761      0.54437      .   S
    C119   O761      0.54437      .   S
    C291   O762      0.70201      .   S
    C292   O762      0.70201      .   S
    C190   O763      0.75024      .   S
    C189   O763      0.75024      .   S
    C131   O764      0.54486      .   S
    C307   O764      0.54486      .   S
    C293   O765      0.69996      .   S
    C292   O765      0.69996      .   S
    C293   O766      0.54397      .   S
    C120   O766      0.54397      .   S
    C307   O767      0.69937      .   S
    C308   O767      0.69937      .   S
    C213   O768      0.63650      .   S
    C351   O768      0.63650      .   S
    C213   O769      0.64011      .   S
    C352   O769      0.64011      .   S
    C310   O770      0.54504      .   S
    C133   O770      0.54504      .   S
    C310   O771      0.69369  1_455   S
    C309   O771      0.69369      .   S
    C292   O772      0.74776      .   S
    C295   O772      0.74776      .   S
    C351   O773      1.05727      .   S
    C3     O773      1.05727      .   S
    C189   O774      0.63972      .   S
    C345   O774      0.63972      .   S
    C189   O775      0.63642      .   S
    C344   O775      0.63642      .   S
    C345   O776      1.02321      .   S
    C3     O776      1.02321      .   S
    C352   O777      1.02531      .   S
    C2     O777      1.02531      .   S
    C69    O778      0.54418      .   S
    C226   O778      0.54418      .   S
    C308   O779      0.70309      .   S
    C309   O779      0.70309      .   S
    C308   O780      0.74969      .   S
    C311   O780      0.74969      .   S
    C68    O781      0.54506      .   S
    C225   O781      0.54506      .   S
    C309   O782      0.54448      .   S
    C132   O782      0.54448      .   S
    C344   O783      1.08165      .   S
    C2     O783      1.08165      .   S
    C295   O784      0.63991      .   S
    C372   O784      0.63991      .   S
    C295   O785      0.63622      .   S
    C373   O785      0.63622      .   S
    C226   O786      0.69305      .   S
    C225   O786      0.69305      .   S
    C226   O787      0.67433      .   S
    C327   O787      0.67433      .   S
    C225   O788      0.70390      .   S
    C224   O788      0.70390      .   S
    C72    O789      0.54480      .   S
    C230   O789      0.54480      .   S
    C70    O790      0.54644      .   S
    C227   O790      0.54644      .   S
    C73    O791      0.54500      .   S
    C231   O791      0.54500      .   S
    C311   O792      0.63658      .   S
    C378   O792      0.63658      .   S
    C311   O793      0.63817      .   S
    C379   O793      0.63817      .   S
    C108   O794      0.54494      .   S
    C277   O794      0.54494      .   S
    C109   O795      0.54530      .   S
    C278   O795      0.54530      .   S
    C327   O796      1.02344  1_545   S
    C3     O796      1.02344      .   S
    C327   O797      0.67490      .   S
    C222   O797      0.67490      .   S
    C224   O798      0.72695      .   S
    C227   O798      0.72695      .   S
    C224   O799      0.70291      .   S
    C223   O799      0.70291      .   S
    C230   O800      0.69153      .   S
    C231   O800      0.69153      .   S
    C230   O801      0.70459      .   S
    C229   O801      0.70459      .   S
    C227   O802      0.67570      .   S
    C228   O802      0.67570      .   S
    C231   O803      0.67566      .   S
    C326   O803      0.67566      .   S
    C277   O804      0.69419      .   S
    C278   O804      0.69419      .   S
    C2     O805      1.03225      .   S
    C326   O805      1.03225      .   S
    C222   O806      0.69105      .   S
    C223   O806      0.69105      .   S
    C228   O807      0.72738      .   S
    C229   O807      0.72738      .   S
    C0     O808      1.40085      .   S
    C1     O808      1.40085      .   S
    C2     O809      1.39968      .   S
    C3     O809      1.39968      .   S
    C4     O810      1.39960      .   S
    C5     O810      1.39960      .   S
    C6     O811      1.40085      .   S
    C7     O811      1.40085      .   S
