# CIF file generated by openbabel 2.4.90, see http://openbabel.sf.net
data_I
_chemical_name_common ''
_cell_length_a 15.411
_cell_length_b 15.42
_cell_length_c 15.411
_cell_angle_alpha 60.015
_cell_angle_beta 60.035
_cell_angle_gamma 60.048
_space_group_name_H-M_alt 'P 1'
_space_group_name_Hall 'P 1'
loop_
    _symmetry_equiv_pos_as_xyz
    x,y,z
loop_
    _atom_site_label
    _atom_site_type_symbol
    _atom_site_fract_x
    _atom_site_fract_y
    _atom_site_fract_z
    _atom_site_occupancy
    Zr0     Zr   0.15415   0.15425   0.53762   1.000
    Zr1     Zr   0.15414   0.15419   0.15404   1.000
    Zr2     Zr   0.53755   0.15428   0.15411   1.000
    Zr3     Zr   0.15428   0.53739   0.15422   1.000
    Zr4     Zr   0.84588   0.84575   0.46240   1.000
    Zr5     Zr   0.84588   0.84581   0.84597   1.000
    Zr6     Zr   0.84575   0.46261   0.84580   1.000
    Zr7     Zr   0.46248   0.84572   0.84591   1.000
    Zr8     Zr   0.25003   0.24999   0.25002   1.000
    Zr9     Zr   0.75000   0.75001   0.75000   1.000
    Zr10    Zr   0.66733   0.00008   0.00011   1.000
    Zr11    Zr   0.09720   0.09712   0.70850   1.000
    Zr12    Zr   0.09681   0.09755   0.09700   1.000
    Zr13    Zr   0.70843   0.09761   0.09705   1.000
    Zr14    Zr   0.09752   0.70820   0.09683   1.000
    Zr15    Zr   0.90282   0.90288   0.29146   1.000
    Zr16    Zr   0.90322   0.90245   0.90298   1.000
    Zr17    Zr   0.90250   0.29180   0.90318   1.000
    Zr18    Zr   0.29160   0.90239   0.90297   1.000
    O19     O    0.12590   0.62280   0.12552   1.000
    O20     O    0.12547   0.12587   0.12552   1.000
    O21     O    0.62299   0.12594   0.12558   1.000
    O22     O    0.87435   0.87432   0.37693   1.000
    O23     O    0.12568   0.12569   0.62306   1.000
    O24     O    0.87412   0.37720   0.87449   1.000
    O25     O    0.37704   0.87406   0.87444   1.000
    O26     O    0.87455   0.87413   0.87448   1.000
    N27     N    0.00001   0.50000   0.50000   1.000
    O28     O    0.06701   0.36720   0.49888   1.000
    O29     O    0.06707   0.49877   0.36718   1.000
    O30     O    0.93301   0.63280   0.50113   1.000
    O31     O    0.93296   0.50123   0.63281   1.000
    O32     O    0.09960   0.40043   0.40047   1.000
    O33     O    0.90042   0.59957   0.59955   1.000
    N34     N    0.47802   0.99999   0.99999   1.000
    O35     O    0.35618   0.06701   0.06694   1.000
    O36     O    0.48784   0.06704   0.06698   1.000
    O37     O    0.49019   0.93295   0.93302   1.000
    O38     O    0.62185   0.93298   0.93305   1.000
    O39     O    0.38946   0.09956   0.09954   1.000
    O40     O    0.58857   0.90043   0.90045   1.000
    N41     N    0.00001   0.50000   1.00000   1.000
    O42     O    0.06705   0.49875   0.06705   1.000
    O43     O    0.06702   0.36717   0.06693   1.000
    O44     O    0.93300   0.63283   0.93305   1.000
    O45     O    0.93297   0.50125   0.93295   1.000
    O46     O    0.09959   0.40041   0.09958   1.000
    O47     O    0.90043   0.59959   0.90043   1.000
    N48     N    0.50645   0.00000   0.48667   1.000
    O49     O    0.37039   0.06707   0.49218   1.000
    O50     O    0.50204   0.06705   0.36049   1.000
    O51     O    0.63607   0.93293   0.49450   1.000
    O52     O    0.50443   0.93295   0.62619   1.000
    O53     O    0.40366   0.09960   0.39377   1.000
    O54     O    0.60281   0.90040   0.59291   1.000
    N55     N    0.00001   1.00000   0.50001   1.000
    O56     O    0.06703   0.06700   0.36713   1.000
    O57     O    0.06701   0.06705   0.49885   1.000
    O58     O    0.93299   0.93300   0.63288   1.000
    O59     O    0.93302   0.93295   0.50117   1.000
    O60     O    0.09959   0.09957   0.40044   1.000
    O61     O    0.90043   0.90043   0.59958   1.000
    N62     N    0.50001   0.50000   0.99999   1.000
    O63     O    0.36722   0.49875   0.06706   1.000
    O64     O    0.49883   0.36720   0.06699   1.000
    O65     O    0.50119   0.63280   0.93300   1.000
    O66     O    0.63281   0.50125   0.93294   1.000
    O67     O    0.40045   0.40041   0.09958   1.000
    O68     O    0.59957   0.59959   0.90041   1.000
loop_
    _geom_bond_atom_site_label_1
    _geom_bond_atom_site_label_2
    _geom_bond_distance
    _geom_bond_site_symmetry_2
    _ccdc_geom_bond_type
    Zr14   O19       1.07571      .   S
    Zr3    O19       1.07571      .   S
    Zr12   O20       1.07591      .   S
    Zr1    O20       1.07591      .   S
    Zr13   O21       1.07572      .   S
    Zr2    O21       1.07572      .   S
    Zr15   O22       1.07575      .   S
    Zr4    O22       1.07575      .   S
    Zr0    O23       1.07537      .   S
    Zr11   O23       1.07537      .   S
    Zr6    O24       1.07571      .   S
    Zr17   O24       1.07571      .   S
    Zr7    O25       1.07572      .   S
    Zr18   O25       1.07572      .   S
    Zr5    O26       1.07573      .   S
    Zr16   O26       1.07573      .   S
    N27    O28       1.77938      .   S
    Zr0    O28       2.71670      .   S
    N27    O29       1.77886      .   S
    Zr3    O29       2.71503      .   S
    N27    O30       1.77941  1_455   S
    Zr4    O30       2.71673      .   S
    N27    O31       1.77871  1_455   S
    Zr6    O31       2.71542      .   S
    N27    O32       2.17148      .   S
    Zr8    O32       3.28143      .   S
    N27    O33       2.17158  1_455   S
    Zr9    O33       3.28152      .   S
    N34    O35       1.68855  1_566   S
    Zr1    O35       2.59854      .   S
    N34    O36       1.88070  1_566   S
    Zr2    O36       2.83932      .   S
    N34    O37       1.68770      .   S
    Zr7    O37       2.59706      .   S
    N34    O38       1.88133      .   S
    Zr5    O38       2.84047      .   S
    N34    O39       2.17822  1_566   S
    Zr8    O39       3.28594      .   S
    N34    O40       2.17807      .   S
    Zr9    O40       3.28576      .   S
    N41    O42       1.77833  1_556   S
    Zr3    O42       2.71485      .   S
    N41    O43       1.77930  1_556   S
    Zr1    O43       2.71684      .   S
    N41    O44       1.77932  1_455   S
    Zr5    O44       2.71676      .   S
    N41    O45       1.77816  1_455   S
    Zr6    O45       2.71463      .   S
    N41    O46       2.17080  1_556   S
    Zr8    O46       3.27942      .   S
    N41    O47       2.17066  1_455   S
    Zr9    O47       3.27922      .   S
    N48    O49       1.79392      .   S
    Zr0    O49       2.74580      .   S
    N48    O50       1.70515      .   S
    Zr2    O50       2.63522      .   S
    N48    O51       1.76852  1_545   S
    Zr4    O51       2.68933      .   S
    N48    O52       1.85371  1_545   S
    Zr7    O52       2.79671      .   S
    N48    O53       2.13461      .   S
    Zr8    O53       3.24234      .   S
    N48    O54       2.20958  1_545   S
    Zr9    O54       3.31742      .   S
    N55    O56       1.77919  1_565   S
    Zr1    O56       2.71653      .   S
    N55    O57       1.77887  1_565   S
    Zr0    O57       2.71593      .   S
    N55    O58       1.77917  1_455   S
    Zr5    O58       2.71646      .   S
    N55    O59       1.77882  1_455   S
    Zr4    O59       2.71583      .   S
    N55    O60       2.17086  1_565   S
    Zr8    O60       3.27952      .   S
    N55    O61       2.17082  1_455   S
    Zr9    O61       3.27948      .   S
    N62    O63       1.77856  1_556   S
    Zr3    O63       2.71522      .   S
    N62    O64       1.77898  1_556   S
    Zr2    O64       2.71600      .   S
    N62    O65       1.77896      .   S
    Zr7    O65       2.71598      .   S
    N62    O66       1.77857      .   S
    Zr6    O66       2.71523      .   S
    N62    O67       2.17080  1_556   S
    Zr8    O67       3.27942      .   S
    N62    O68       2.17081      .   S
    Zr9    O68       3.27942      .   S
