# CIF file generated by openbabel 2.4.90, see http://openbabel.sf.net
data_I
_chemical_name_common ''
_cell_length_a 15.411
_cell_length_b 15.42
_cell_length_c 15.411
_cell_angle_alpha 60.015
_cell_angle_beta 60.035
_cell_angle_gamma 60.048
_space_group_name_H-M_alt 'P 1'
_space_group_name_Hall 'P 1'
loop_
    _symmetry_equiv_pos_as_xyz
    x,y,z
loop_
    _atom_site_label
    _atom_site_type_symbol
    _atom_site_fract_x
    _atom_site_fract_y
    _atom_site_fract_z
    _atom_site_occupancy
    N0      N    0.00001   0.50000   0.50000   1.000
    N1      N    0.47802   0.99999   0.99999   1.000
    N2      N    0.00001   0.50000   1.00000   1.000
    N3      N    0.50645   0.00000   0.48667   1.000
    N4      N    0.00001   1.00000   0.50001   1.000
    N5      N    0.50001   0.50000   0.99999   1.000
    Zr6     Zr   0.12547   0.12587   0.12552   1.000
    O7      O    0.09625   0.24652   0.09623   1.000
    O8      O    0.09625   0.09643   0.24633   1.000
    O9      O    0.24083   0.09644   0.09623   1.000
    Zr10    Zr   0.62299   0.12594   0.12558   1.000
    O11     O    0.56091   0.24657   0.09629   1.000
    O12     O    0.56251   0.09650   0.24303   1.000
    O13     O    0.55541   0.09649   0.09628   1.000
    Zr14    Zr   0.12590   0.62280   0.12552   1.000
    O15     O    0.09648   0.56077   0.09629   1.000
    O16     O    0.24656   0.56077   0.09629   1.000
    O17     O    0.09648   0.56078   0.24635   1.000
    Zr18    Zr   0.87435   0.87432   0.37693   1.000
    O19     O    0.90368   0.90363   0.43905   1.000
    O20     O    0.90368   0.75356   0.43903   1.000
    O21     O    0.75521   0.90362   0.43572   1.000
    Zr22    Zr   0.87455   0.87413   0.87448   1.000
    O23     O    0.74820   0.90355   0.90376   1.000
    O24     O    0.90377   0.90356   0.75368   1.000
    O25     O    0.90378   0.75348   0.90376   1.000
    Zr26    Zr   0.87412   0.37720   0.87449   1.000
    O27     O    0.75347   0.43922   0.90371   1.000
    O28     O    0.90355   0.43923   0.90372   1.000
    O29     O    0.90354   0.43922   0.75365   1.000
    Zr30    Zr   0.37704   0.87406   0.87444   1.000
    O31     O    0.44073   0.90350   0.75032   1.000
    O32     O    0.43911   0.75343   0.90372   1.000
    O33     O    0.43362   0.90350   0.90373   1.000
    Zr34    Zr   0.25003   0.24999   0.25002   1.000
    O35     O    0.17481   0.17478   0.32523   1.000
    O36     O    0.17481   0.32520   0.17480   1.000
    O37     O    0.32524   0.32520   0.17480   1.000
    O38     O    0.31974   0.17477   0.17478   1.000
    O39     O    0.17481   0.32521   0.32524   1.000
    O40     O    0.32684   0.17480   0.32189   1.000
    Zr41    Zr   0.75000   0.75001   0.75000   1.000
    O42     O    0.67478   0.67480   0.82520   1.000
    O43     O    0.82522   0.82522   0.67479   1.000
    O44     O    0.82521   0.67479   0.67477   1.000
    O45     O    0.82521   0.67480   0.82521   1.000
    O46     O    0.66929   0.82522   0.82522   1.000
    O47     O    0.67640   0.82520   0.67146   1.000
    Zr48    Zr   0.66733   0.00008   0.00011   1.000
    Zr49    Zr   0.12568   0.12569   0.62306   1.000
    O50     O    0.24803   0.09638   0.55762   1.000
    O51     O    0.09634   0.09637   0.56095   1.000
    O52     O    0.09634   0.24644   0.56097   1.000
loop_
    _geom_bond_atom_site_label_1
    _geom_bond_atom_site_label_2
    _geom_bond_distance
    _geom_bond_site_symmetry_2
    _ccdc_geom_bond_type
    Zr6    O7        1.54751      .   S
    N2     O7        3.20798  1_556   S
    Zr6    O8        1.54819      .   S
    N4     O8        3.20846  1_565   S
    Zr6    O9        1.47223      .   S
    N1     O9        3.02225  1_566   S
    Zr10   O11       1.54731      .   S
    N5     O11       3.20731  1_556   S
    Zr10   O12       1.50566      .   S
    N3     O12       3.08501      .   S
    Zr10   O13       1.62533      .   S
    N1     O13       3.40394  1_566   S
    Zr14   O15       1.54637      .   S
    N2     O15       3.20551  1_556   S
    Zr14   O16       1.54703      .   S
    N5     O16       3.20650  1_556   S
    Zr14   O17       1.54825      .   S
    N0     O17       3.20824      .   S
    Zr18   O19       1.54730      .   S
    N4     O19       3.20712  1_455   S
    Zr18   O20       1.54853      .   S
    N0     O20       3.20924  1_455   S
    Zr18   O21       1.52153      .   S
    N3     O21       3.16104  1_545   S
    Zr22   O23       1.62652      .   S
    N1     O23       3.40601      .   S
    Zr22   O24       1.54805      .   S
    N4     O24       3.20833  1_455   S
    Zr22   O25       1.54752      .   S
    N2     O25       3.20796  1_455   S
    Zr26   O27       1.54704      .   S
    N5     O27       3.20652      .   S
    Zr26   O28       1.54630      .   S
    N2     O28       3.20527  1_455   S
    Zr26   O29       1.54839      .   S
    N0     O29       3.20826  1_455   S
    Zr30   O31       1.59059      .   S
    N3     O31       3.33154  1_545   S
    Zr30   O32       1.54730      .   S
    N5     O32       3.20729      .   S
    Zr30   O33       1.47088      .   S
    N1     O33       3.01980      .   S
    Zr34   O35       1.63976      .   S
    N4     O35       3.81062  1_565   S
    Zr34   O36       1.63971      .   S
    N2     O36       3.81051  1_556   S
    Zr34   O37       1.63971      .   S
    N5     O37       3.81051  1_556   S
    Zr34   O38       1.64297      .   S
    N1     O38       3.82087  1_566   S
    Zr34   O39       1.64071      .   S
    N0     O39       3.81220      .   S
    Zr34   O40       1.62117      .   S
    N3     O40       3.75570      .   S
    Zr41   O42       1.63971      .   S
    N5     O42       3.81052      .   S
    Zr41   O43       1.63974      .   S
    N4     O43       3.81056  1_455   S
    Zr41   O44       1.64076      .   S
    N0     O44       3.81235  1_455   S
    Zr41   O45       1.63961      .   S
    N2     O45       3.81027  1_455   S
    Zr41   O46       1.64288      .   S
    N1     O46       3.82062      .   S
    Zr41   O47       1.65871      .   S
    N3     O47       3.86823  1_545   S
    Zr49   O50       1.57541      .   S
    N3     O50       3.26019      .   S
    Zr49   O51       1.54714      .   S
    N4     O51       3.20704  1_565   S
    Zr49   O52       1.54851      .   S
    N0     O52       3.20924      .   S
