# CIF file generated by openbabel 2.4.90, see http://openbabel.sf.net
data_I
_chemical_name_common ''
_cell_length_a 15.411
_cell_length_b 15.42
_cell_length_c 15.411
_cell_angle_alpha 60.015
_cell_angle_beta 60.035
_cell_angle_gamma 60.048
_space_group_name_H-M_alt 'P 1'
_space_group_name_Hall 'P 1'
loop_
    _symmetry_equiv_pos_as_xyz
    x,y,z
loop_
    _atom_site_label
    _atom_site_type_symbol
    _atom_site_fract_x
    _atom_site_fract_y
    _atom_site_fract_z
    _atom_site_occupancy
    C0      C    0.15415   0.15425   0.53762   1.000
    C1      C    0.15414   0.15419   0.15404   1.000
    C2      C    0.53755   0.15428   0.15411   1.000
    C3      C    0.15428   0.53739   0.15422   1.000
    C4      C    0.84588   0.84575   0.46240   1.000
    C5      C    0.84588   0.84581   0.84597   1.000
    C6      C    0.84575   0.46261   0.84580   1.000
    C7      C    0.46248   0.84572   0.84591   1.000
    C8      C    0.25003   0.24999   0.25002   1.000
    C9      C    0.75000   0.75001   0.75000   1.000
    C10     C    0.99987   0.33282   0.66749   1.000
    C11     C    0.33269   0.99992   0.99988   1.000
    C12     C    0.66733   0.00008   0.00011   1.000
    C13     C    0.00014   0.66718   0.33252   1.000
    C14     C    0.00002   0.66714   0.00034   1.000
    C15     C    0.33273   0.00012   0.66740   1.000
    C16     C    0.66729   0.99987   0.33262   1.000
    C17     C    0.99998   0.33287   0.99965   1.000
    C18     C    0.00014   0.99980   0.33262   1.000
    C19     C    0.33266   0.66716   0.00025   1.000
    C20     C    0.66736   0.33285   0.99974   1.000
    C21     C    0.99987   0.00020   0.66740   1.000
    C22     C    0.05341   0.40003   0.49327   1.000
    C23     C    0.40003   0.05338   0.05334   1.000
    C24     C    0.49319   0.05342   0.05339   1.000
    C25     C    0.05347   0.49312   0.40006   1.000
    C26     C    0.05342   0.49308   0.05348   1.000
    C27     C    0.40003   0.05351   0.49320   1.000
    C28     C    0.49315   0.05342   0.40002   1.000
    C29     C    0.05341   0.40002   0.05333   1.000
    C30     C    0.05345   0.05335   0.40001   1.000
    C31     C    0.40007   0.49310   0.05351   1.000
    C32     C    0.49320   0.40004   0.05338   1.000
    C33     C    0.05338   0.05345   0.49319   1.000
    C34     C    0.60000   0.94649   0.50682   1.000
    C35     C    0.94661   0.59998   0.94668   1.000
    C36     C    0.94661   0.50692   0.94654   1.000
    C37     C    0.50687   0.94658   0.59999   1.000
    C38     C    0.50684   0.94658   0.94663   1.000
    C39     C    0.94661   0.59997   0.50674   1.000
    C40     C    0.94655   0.50688   0.59995   1.000
    C41     C    0.60000   0.94662   0.94660   1.000
    C42     C    0.94657   0.94665   0.60001   1.000
    C43     C    0.50682   0.59996   0.94660   1.000
    C44     C    0.59996   0.50690   0.94651   1.000
    C45     C    0.94665   0.94655   0.50682   1.000
    C46     C    0.99993   0.40347   0.59669   1.000
    C47     C    0.40340   0.99996   0.99993   1.000
    C48     C    0.59661   0.00004   0.30000   1.000
    C49     C    0.00007   0.59653   0.40332   1.000
    C50     C    0.99998   0.59651   0.00020   1.000
    C51     C    0.40343   0.00007   0.59665   1.000
    C52     C    0.59659   0.99993   0.40337   1.000
    C53     C    0.00002   0.40350   0.99979   1.000
    C54     C    0.00009   0.99987   0.40337   1.000
    C55     C    0.40340   0.59652   0.00014   1.000
    C56     C    0.59662   0.40349   0.99985   1.000
    C57     C    0.99991   0.00012   0.59665   1.000
    C58     C    0.11388   0.31454   0.45788   1.000
    C59     C    0.31453   0.11386   0.11376   1.000
    C60     C    0.45777   0.11391   0.11382   1.000
    C61     C    0.11397   0.45767   0.31450   1.000
    C62     C    0.11392   0.45759   0.11400   1.000
    C63     C    0.31451   0.11405   0.45775   1.000
    C64     C    0.45770   0.11394   0.31449   1.000
    C65     C    0.11392   0.31450   0.11370   1.000
    C66     C    0.11396   0.11381   0.31448   1.000
    C67     C    0.31457   0.45762   0.11405   1.000
    C68     C    0.45776   0.31453   0.11387   1.000
    C69     C    0.11385   0.11396   0.45775   1.000
    C70     C    0.68552   0.88595   0.54226   1.000
    C71     C    0.88611   0.68550   0.88624   1.000
    C72     C    0.88611   0.54241   0.88601   1.000
    C73     C    0.54233   0.88606   0.68552   1.000
    C74     C    0.54226   0.88609   0.88619   1.000
    C75     C    0.88614   0.68546   0.54213   1.000
    C76     C    0.88606   0.54233   0.68544   1.000
    C77     C    0.68549   0.88614   0.88626   1.000
    C78     C    0.88606   0.88619   0.68554   1.000
    C79     C    0.54226   0.68547   0.88610   1.000
    C80     C    0.68546   0.54238   0.88596   1.000
    C81     C    0.88618   0.88604   0.54226   1.000
    C82     C    0.14835   0.35172   0.35184   1.000
    C83     C    0.35176   0.14827   0.14819   1.000
    C84     C    0.14832   0.35164   0.14830   1.000
    C85     C    0.35170   0.14842   0.35171   1.000
    C86     C    0.14831   0.14830   0.35171   1.000
    C87     C    0.35176   0.35166   0.14830   1.000
    C88     C    0.64833   0.85158   0.64830   1.000
    C89     C    0.85170   0.64836   0.85171   1.000
    C90     C    0.64826   0.85173   0.85183   1.000
    C91     C    0.85167   0.64828   0.64818   1.000
    C92     C    0.85172   0.85170   0.64830   1.000
    C93     C    0.64827   0.64834   0.85164   1.000
    C94     C    0.09720   0.09712   0.70850   1.000
    C95     C    0.09681   0.09755   0.09700   1.000
    C96     C    0.70843   0.09761   0.09705   1.000
    C97     C    0.09752   0.70820   0.09683   1.000
    C98     C    0.90282   0.90288   0.29146   1.000
    C99     C    0.90322   0.90245   0.90298   1.000
    C100    C    0.90250   0.29180   0.90318   1.000
    C101    C    0.29160   0.90239   0.90297   1.000
    O102    O    0.36803   0.63184   0.00020   1.000
    O103    O    0.40173   0.54481   0.02683   1.000
    O104    O    0.45511   0.59824   0.97337   1.000
    O105    O    0.00000   0.63182   0.00027   1.000
    O106    O    0.02670   0.54480   0.02684   1.000
    O107    O    0.97330   0.59825   0.97344   1.000
    O108    O    0.05342   0.44655   0.05341   1.000
    O109    O    0.08367   0.35726   0.08352   1.000
    O110    O    0.02672   0.40176   0.02656   1.000
    O111    O    0.44661   0.05340   0.05336   1.000
    O112    O    0.35728   0.08362   0.08355   1.000
    O113    O    0.40172   0.02667   0.02664   1.000
    O114    O    0.44664   0.44657   0.05344   1.000
    O115    O    0.47548   0.35728   0.08363   1.000
    O116    O    0.54491   0.40176   0.02662   1.000
    O117    O    0.47548   0.08367   0.08361   1.000
    O118    O    0.08367   0.47534   0.08374   1.000
    O119    O    0.35732   0.47536   0.08378   1.000
    O120    O    0.12590   0.62280   0.12552   1.000
    O121    O    0.12547   0.12587   0.12552   1.000
    O122    O    0.62299   0.12594   0.12558   1.000
    O123    O    0.13112   0.33307   0.13100   1.000
    O124    O    0.13403   0.23434   0.13387   1.000
    O125    O    0.33315   0.13107   0.13097   1.000
    O126    O    0.23434   0.13403   0.13390   1.000
    O127    O    0.40476   0.13109   0.13100   1.000
    O128    O    0.49766   0.13409   0.13397   1.000
    O129    O    0.40476   0.33310   0.13108   1.000
    O130    O    0.49766   0.23440   0.13399   1.000
    O131    O    0.13112   0.40461   0.13115   1.000
    O132    O    0.13410   0.49749   0.13411   1.000
    O133    O    0.33316   0.40464   0.13118   1.000
    O134    O    0.23442   0.49750   0.13414   1.000
    O135    O    0.30090   0.19913   0.19911   1.000
    O136    O    0.19918   0.30081   0.19916   1.000
    O137    O    0.30089   0.30083   0.19916   1.000
    O138    O    0.13405   0.13400   0.23426   1.000
    O139    O    0.49762   0.13411   0.23430   1.000
    O140    O    0.13412   0.49753   0.23436   1.000
    O141    O    0.30086   0.19920   0.30087   1.000
    O142    O    0.19917   0.19914   0.30087   1.000
    O143    O    0.19919   0.30085   0.30093   1.000
    O144    O    0.87435   0.87432   0.37693   1.000
    O145    O    0.13114   0.13105   0.33309   1.000
    O146    O    0.08371   0.08358   0.35724   1.000
    O147    O    0.40470   0.13118   0.33310   1.000
    O148    O    0.47543   0.08368   0.35725   1.000
    O149    O    0.13116   0.40469   0.33317   1.000
    O150    O    0.08372   0.47540   0.35728   1.000
    O151    O    0.00011   0.63186   0.36792   1.000
    O152    O    0.00012   0.99984   0.36800   1.000
    O153    O    0.63194   0.99990   0.36800   1.000
    O154    O    0.33310   0.13123   0.40473   1.000
    O155    O    0.13108   0.13113   0.40473   1.000
    O156    O    0.13112   0.33313   0.40486   1.000
    O157    O    0.02677   0.02661   0.40169   1.000
    O158    O    0.05342   0.05340   0.44660   1.000
    O159    O    0.54487   0.02667   0.40169   1.000
    O160    O    0.44659   0.05346   0.44661   1.000
    O161    O    0.54488   0.02673   0.35001   1.000
    O162    O    0.02677   0.54483   0.40169   1.000
    O163    O    0.05344   0.44658   0.44666   1.000
    O164    O    0.97334   0.59825   0.45503   1.000
    O165    O    0.97337   0.97321   0.45510   1.000
    O166    O    0.59829   0.97321   0.45510   1.000
    O167    O    0.59660   0.99998   0.35169   1.000
    O168    O    0.08362   0.08371   0.47547   1.000
    O169    O    0.13400   0.13411   0.49768   1.000
    O170    O    0.35727   0.08378   0.47548   1.000
    O171    O    0.23433   0.13415   0.49768   1.000
    O172    O    0.08365   0.35729   0.47557   1.000
    O173    O    0.13402   0.23440   0.49775   1.000
    O174    O    0.86601   0.76560   0.50226   1.000
    O175    O    0.86603   0.86589   0.50233   1.000
    O176    O    0.76570   0.86585   0.50233   1.000
    O177    O    0.02665   0.02679   0.54492   1.000
    O178    O    0.40173   0.02679   0.54492   1.000
    O179    O    0.02667   0.40175   0.54498   1.000
    O180    O    0.91638   0.64271   0.52444   1.000
    O181    O    0.94658   0.55342   0.55334   1.000
    O182    O    0.91641   0.91629   0.52454   1.000
    O183    O    0.94661   0.94660   0.55341   1.000
    O184    O    0.64276   0.91622   0.52454   1.000
    O185    O    0.55343   0.94654   0.55341   1.000
    O186    O    0.12568   0.12569   0.62306   1.000
    O187    O    0.86891   0.66687   0.59515   1.000
    O188    O    0.86895   0.86887   0.59528   1.000
    O189    O    0.66692   0.86877   0.59528   1.000
    O190    O    0.45515   0.97333   0.59832   1.000
    O191    O    0.36808   0.00010   0.63202   1.000
    O192    O    0.97324   0.97338   0.59833   1.000
    O193    O    0.99989   0.00016   0.63202   1.000
    O194    O    0.97324   0.45517   0.59832   1.000
    O195    O    0.99990   0.36814   0.63209   1.000
    O196    O    0.91630   0.52460   0.64270   1.000
    O197    O    0.52460   0.91632   0.64275   1.000
    O198    O    0.91632   0.91642   0.64277   1.000
    O199    O    0.86887   0.59531   0.66681   1.000
    O200    O    0.80084   0.69915   0.69909   1.000
    O201    O    0.59533   0.86882   0.66691   1.000
    O202    O    0.69916   0.80080   0.69915   1.000
    O203    O    0.86889   0.86895   0.66692   1.000
    O204    O    0.80086   0.80086   0.69915   1.000
    O205    O    0.86590   0.50247   0.76562   1.000
    O206    O    0.50240   0.86589   0.76572   1.000
    O207    O    0.86597   0.86600   0.76576   1.000
    O208    O    0.69913   0.69917   0.80082   1.000
    O209    O    0.80085   0.69919   0.80085   1.000
    O210    O    0.69913   0.80087   0.80091   1.000
    O211    O    0.76560   0.50250   0.86588   1.000
    O212    O    0.86593   0.50251   0.86591   1.000
    O213    O    0.87412   0.37720   0.87449   1.000
    O214    O    0.50237   0.76560   0.86601   1.000
    O215    O    0.50237   0.86590   0.86605   1.000
    O216    O    0.37704   0.87406   0.87444   1.000
    O217    O    0.86599   0.76565   0.86611   1.000
    O218    O    0.76569   0.86597   0.86612   1.000
    O219    O    0.87455   0.87413   0.87448   1.000
    O220    O    0.66686   0.59536   0.86880   1.000
    O221    O    0.59526   0.66690   0.86887   1.000
    O222    O    0.86891   0.59539   0.86886   1.000
    O223    O    0.86890   0.66693   0.86898   1.000
    O224    O    0.59526   0.86891   0.86901   1.000
    O225    O    0.66688   0.86893   0.86905   1.000
    O226    O    0.64271   0.52464   0.91624   1.000
    O227    O    0.91636   0.52466   0.91628   1.000
    O228    O    0.52454   0.64271   0.91635   1.000
    O229    O    0.52455   0.91633   0.91641   1.000
    O230    O    0.91636   0.64274   0.91646   1.000
    O231    O    0.64275   0.91638   0.91643   1.000
    O232    O    0.55339   0.55343   0.94655   1.000
    O233    O    0.59829   0.45519   0.97318   1.000
    O234    O    0.94661   0.55345   0.94661   1.000
    O235    O    0.97331   0.45521   0.97317   1.000
    O236    O    0.55342   0.94660   0.94662   1.000
    O237    O    0.45512   0.97327   0.97328   1.000
    O238    O    0.00000   0.36818   0.99972   1.000
    O239    O    0.63199   0.36817   0.99979   1.000
    O240    O    0.36805   0.99994   0.99991   1.000
loop_
    _geom_bond_atom_site_label_1
    _geom_bond_atom_site_label_2
    _geom_bond_distance
    _geom_bond_site_symmetry_2
    _ccdc_geom_bond_type
    C55    O102      0.54526      .   S
    C19    O102      0.54526      .   S
    C55    O103      0.69834      .   S
    C31    O103      0.69834      .   S
    C55    O104      0.69838  1_554   S
    C43    O104      0.69838      .   S
    C50    O105      0.54526  1_655   S
    C14    O105      0.54526      .   S
    C50    O106      0.69838  1_655   S
    C26    O106      0.69838      .   S
    C50    O107      0.69807  1_554   S
    C35    O107      0.69807      .   S
    C29    O108      0.71813      .   S
    C26    O108      0.71813      .   S
    C29    O109      0.68675      .   S
    C65    O109      0.68675      .   S
    C29    O110      0.69833      .   S
    C53    O110      0.69833  1_556   S
    C23    O111      0.71816      .   S
    C24    O111      0.71816      .   S
    C23    O112      0.68705      .   S
    C59    O112      0.68705      .   S
    C23    O113      0.69839      .   S
    C47    O113      0.69839  1_566   S
    C32    O114      0.71811      .   S
    C31    O114      0.71811      .   S
    C32    O115      0.68700      .   S
    C68    O115      0.68700      .   S
    C32    O116      0.69834      .   S
    C56    O116      0.69834  1_556   S
    C24    O117      0.68692      .   S
    C60    O117      0.68692      .   S
    C26    O118      0.68694      .   S
    C62    O118      0.68694      .   S
    C31    O119      0.68696      .   S
    C67    O119      0.68696      .   S
    C97    O120      1.07571      .   S
    C3     O120      1.07571      .   S
    C95    O121      1.07591      .   S
    C1     O121      1.07591      .   S
    C96    O122      1.07572      .   S
    C2     O122      1.07572      .   S
    C65    O123      0.66788      .   S
    C84    O123      0.66788      .   S
    C65    O124      1.02469      .   S
    C1     O124      1.02469      .   S
    C59    O125      0.66744      .   S
    C83    O125      0.66744      .   S
    C59    O126      1.02467      .   S
    C1     O126      1.02467      .   S
    C60    O127      0.66743      .   S
    C83    O127      0.66743      .   S
    C60    O128      1.02442      .   S
    C2     O128      1.02442      .   S
    C68    O129      0.66743      .   S
    C87    O129      0.66743      .   S
    C68    O130      1.02455      .   S
    C2     O130      1.02455      .   S
    C62    O131      0.66737      .   S
    C84    O131      0.66737      .   S
    C62    O132      1.02436      .   S
    C3     O132      1.02436      .   S
    C67    O133      0.66737      .   S
    C87    O133      0.66737      .   S
    C67    O134      1.02441      .   S
    C3     O134      1.02441      .   S
    C83    O135      1.10994      .   S
    C8     O135      1.10994      .   S
    C84    O136      1.10862      .   S
    C8     O136      1.10862      .   S
    C87    O137      1.10861      .   S
    C8     O137      1.10861      .   S
    C1     O138      1.02485      .   S
    C66    O138      1.02485      .   S
    C2     O139      1.02463      .   S
    C64    O139      1.02463      .   S
    C3     O140      1.02384      .   S
    C61    O140      1.02384      .   S
    C8     O141      1.10826      .   S
    C85    O141      1.10826      .   S
    C8     O142      1.10866      .   S
    C86    O142      1.10866      .   S
    C8     O143      1.10994      .   S
    C82    O143      1.10994      .   S
    C98    O144      1.07575      .   S
    C4     O144      1.07575      .   S
    C66    O145      0.66737      .   S
    C86    O145      0.66737      .   S
    C66    O146      0.68704      .   S
    C30    O146      0.68704      .   S
    C64    O147      0.66742      .   S
    C85    O147      0.66742      .   S
    C64    O148      0.68695      .   S
    C28    O148      0.68695      .   S
    C61    O149      0.66740      .   S
    C82    O149      0.66740      .   S
    C61    O150      0.68741      .   S
    C25    O150      0.68741      .   S
    C13    O151      0.54526      .   S
    C49    O151      0.54526      .   S
    C18    O152      0.54528      .   S
    C54    O152      0.54528      .   S
    C16    O153      0.54526      .   S
    C52    O153      0.54526      .   S
    C85    O154      0.66744      .   S
    C63    O154      0.66744      .   S
    C86    O155      0.66744      .   S
    C69    O155      0.66744      .   S
    C82    O156      0.66743      .   S
    C58    O156      0.66743      .   S
    C30    O157      0.69836      .   S
    C54    O157      0.69836  1_565   S
    C30    O158      0.71811      .   S
    C33    O158      0.71811      .   S
    C28    O159      0.69836      .   S
    C52    O159      0.69836  1_565   S
    C28    O160      0.71817      .   S
    C27    O160      0.71817      .   S
    C28    O161      0.88010      .   S
    C48    O161      0.88010      .   S
    C25    O162      0.69836      .   S
    C49    O162      0.69836      .   S
    C25    O163      0.71813      .   S
    C22    O163      0.71813      .   S
    C49    O164      0.69838  1_455   S
    C39    O164      0.69838      .   S
    C54    O165      0.69830  1_455   S
    C45    O165      0.69830      .   S
    C52    O166      0.69834      .   S
    C34    O166      0.69834      .   S
    C52    O167      0.79601      .   S
    C48    O167      0.79601  1_545   S
    C69    O168      0.68699      .   S
    C33    O168      0.68699      .   S
    C69    O169      1.02467      .   S
    C0     O169      1.02467      .   S
    C63    O170      0.68702      .   S
    C27    O170      0.68702      .   S
    C63    O171      1.02480      .   S
    C0     O171      1.02480      .   S
    C58    O172      0.68700      .   S
    C22    O172      0.68700      .   S
    C58    O173      1.02456      .   S
    C0     O173      1.02456      .   S
    C4     O174      1.02455      .   S
    C75    O174      1.02455      .   S
    C4     O175      1.02460      .   S
    C81    O175      1.02460      .   S
    C4     O176      1.02478      .   S
    C70    O176      1.02478      .   S
    C33    O177      0.69841      .   S
    C57    O177      0.69841  1_655   S
    C27    O178      0.69834      .   S
    C51    O178      0.69834      .   S
    C22    O179      0.69838      .   S
    C46    O179      0.69838  1_655   S
    C39    O180      0.68701      .   S
    C75    O180      0.68701      .   S
    C39    O181      0.71813      .   S
    C40    O181      0.71813      .   S
    C45    O182      0.68700      .   S
    C81    O182      0.68700      .   S
    C45    O183      0.71818      .   S
    C42    O183      0.71818      .   S
    C34    O184      0.68697      .   S
    C70    O184      0.68697      .   S
    C34    O185      0.71813      .   S
    C37    O185      0.71813      .   S
    C0     O186      1.07537      .   S
    C94    O186      1.07537      .   S
    C75    O187      0.66750      .   S
    C91    O187      0.66750      .   S
    C81    O188      0.66744      .   S
    C92    O188      0.66744      .   S
    C70    O189      0.66744      .   S
    C88    O189      0.66744      .   S
    C51    O190      0.69834  1_545   S
    C37    O190      0.69834      .   S
    C51    O191      0.54526      .   S
    C15    O191      0.54526      .   S
    C57    O192      0.69818  1_545   S
    C42    O192      0.69818      .   S
    C57    O193      0.54528      .   S
    C21    O193      0.54528      .   S
    C46    O194      0.69835      .   S
    C40    O194      0.69835      .   S
    C46    O195      0.54527      .   S
    C10    O195      0.54527      .   S
    C40    O196      0.68697      .   S
    C76    O196      0.68697      .   S
    C37    O197      0.68696      .   S
    C73    O197      0.68696      .   S
    C42    O198      0.68704      .   S
    C78    O198      0.68704      .   S
    C91    O199      0.66739      .   S
    C76    O199      0.66739      .   S
    C91    O200      1.10994      .   S
    C9     O200      1.10994      .   S
    C88    O201      0.66741      .   S
    C73    O201      0.66741      .   S
    C88    O202      1.10832      .   S
    C9     O202      1.10832      .   S
    C92    O203      0.66744      .   S
    C78    O203      0.66744      .   S
    C92    O204      1.10866      .   S
    C9     O204      1.10866      .   S
    C76    O205      1.02430      .   S
    C6     O205      1.02430      .   S
    C73    O206      1.02469      .   S
    C7     O206      1.02469      .   S
    C78    O207      1.02478      .   S
    C5     O207      1.02478      .   S
    C9     O208      1.10861      .   S
    C93    O208      1.10861      .   S
    C9     O209      1.10857      .   S
    C89    O209      1.10857      .   S
    C9     O210      1.10994      .   S
    C90    O210      1.10994      .   S
    C6     O211      1.02441      .   S
    C80    O211      1.02441      .   S
    C6     O212      1.02430      .   S
    C72    O212      1.02430      .   S
    C6     O213      1.07571      .   S
    C100   O213      1.07571      .   S
    C7     O214      1.02455      .   S
    C79    O214      1.02455      .   S
    C7     O215      1.02437      .   S
    C74    O215      1.02437      .   S
    C7     O216      1.07572      .   S
    C101   O216      1.07572      .   S
    C5     O217      1.02476      .   S
    C71    O217      1.02476      .   S
    C5     O218      1.02466      .   S
    C77    O218      1.02466      .   S
    C5     O219      1.07573      .   S
    C99    O219      1.07573      .   S
    C93    O220      0.66738      .   S
    C80    O220      0.66738      .   S
    C93    O221      0.66743      .   S
    C79    O221      0.66743      .   S
    C89    O222      0.66736      .   S
    C72    O222      0.66736      .   S
    C89    O223      0.66745      .   S
    C71    O223      0.66745      .   S
    C90    O224      0.66743      .   S
    C74    O224      0.66743      .   S
    C90    O225      0.66743      .   S
    C77    O225      0.66743      .   S
    C80    O226      0.68697      .   S
    C44    O226      0.68697      .   S
    C72    O227      0.68700      .   S
    C36    O227      0.68700      .   S
    C79    O228      0.68699      .   S
    C43    O228      0.68699      .   S
    C74    O229      0.68697      .   S
    C38    O229      0.68697      .   S
    C71    O230      0.68704      .   S
    C35    O230      0.68704      .   S
    C77    O231      0.68673      .   S
    C41    O231      0.68673      .   S
    C44    O232      0.71811      .   S
    C43    O232      0.71811      .   S
    C44    O233      0.69830      .   S
    C56    O233      0.69830      .   S
    C36    O234      0.71808      .   S
    C35    O234      0.71808      .   S
    C36    O235      0.69823      .   S
    C53    O235      0.69823  1_455   S
    C41    O236      0.71787      .   S
    C38    O236      0.71787      .   S
    C38    O237      0.69837      .   S
    C47    O237      0.69837      .   S
    C17    O238      0.54526  1_655   S
    C53    O238      0.54525      .   S
    C20    O239      0.54526      .   S
    C56    O239      0.54526      .   S
    C11    O240      0.54526      .   S
    C47    O240      0.54526      .   S
