# CIF file generated by openbabel 2.4.90, see http://openbabel.sf.net
data_I
_chemical_name_common ''
_cell_length_a 14.297
_cell_length_b 18.902
_cell_length_c 18.901
_cell_angle_alpha 66.133
_cell_angle_beta 75.395
_cell_angle_gamma 104.605
_space_group_name_H-M_alt 'P 1'
_space_group_name_Hall 'P 1'
loop_
    _symmetry_equiv_pos_as_xyz
    x,y,z
loop_
    _atom_site_label
    _atom_site_type_symbol
    _atom_site_fract_x
    _atom_site_fract_y
    _atom_site_fract_z
    _atom_site_occupancy
    C0      C    0.18049   0.58024   0.49008   1.000
    C1      C    0.47219   0.54513   0.86275   1.000
    C2      C    0.67058   0.49020   0.92939   1.000
    C3      C    0.33524   0.86264   0.59213   1.000
    C4      C    0.60028   0.92954   0.58021   1.000
    C5      C    0.92737   0.59228   0.54494   1.000
    C6      C    0.81949   0.41969   0.50995   1.000
    C7      C    0.52791   0.45488   0.13720   1.000
    C8      C    0.32949   0.50979   0.07057   1.000
    C9      C    0.66494   0.13736   0.40769   1.000
    C10     C    0.39988   0.07045   0.41970   1.000
    C11     C    0.07257   0.40765   0.45500   1.000
