# CIF file generated by openbabel 2.4.90, see http://openbabel.sf.net
data_I
_chemical_name_common ''
_cell_length_a 14.297
_cell_length_b 18.902
_cell_length_c 18.901
_cell_angle_alpha 66.133
_cell_angle_beta 75.395
_cell_angle_gamma 104.605
_space_group_name_H-M_alt 'P 1'
_space_group_name_Hall 'P 1'
loop_
    _symmetry_equiv_pos_as_xyz
    x,y,z
loop_
    _atom_site_label
    _atom_site_type_symbol
    _atom_site_fract_x
    _atom_site_fract_y
    _atom_site_fract_z
    _atom_site_occupancy
    Zr0     Zr   0.54950   0.57381   0.97706   1.000
    Zr1     Zr   0.52638   0.97703   0.44904   1.000
    Zr2     Zr   0.97554   0.44906   0.57381   1.000
    Zr3     Zr   0.45057   0.42619   0.02291   1.000
    Zr4     Zr   0.47379   0.02296   0.55080   1.000
    Zr5     Zr   0.02447   0.55089   0.42616   1.000
    Zr6     Zr   0.18049   0.58024   0.49008   1.000
    Zr7     Zr   0.47219   0.54513   0.86275   1.000
    Zr8     Zr   0.67058   0.49020   0.92939   1.000
    Zr9     Zr   0.33524   0.86264   0.59213   1.000
    Zr10    Zr   0.60028   0.92954   0.58021   1.000
    Zr11    Zr   0.92737   0.59228   0.54494   1.000
    Zr12    Zr   0.81949   0.41969   0.50995   1.000
    Zr13    Zr   0.52791   0.45488   0.13720   1.000
    Zr14    Zr   0.32949   0.50979   0.07057   1.000
    Zr15    Zr   0.66494   0.13736   0.40769   1.000
    Zr16    Zr   0.39988   0.07045   0.41970   1.000
    Zr17    Zr   0.07257   0.40765   0.45500   1.000
    Zr18    Zr   0.11704   0.51409   0.56109   1.000
    Zr19    Zr   0.16271   0.60830   0.42309   1.000
    Zr20    Zr   0.43274   0.46571   0.91536   1.000
    Zr21    Zr   0.52536   0.60338   0.87273   1.000
    Zr22    Zr   0.67828   0.56118   0.92464   1.000
    Zr23    Zr   0.58572   0.42328   0.96810   1.000
    Zr24    Zr   0.34874   0.91518   0.61900   1.000
    Zr25    Zr   0.39805   0.87271   0.52370   1.000
    Zr26    Zr   0.60284   0.92466   0.51410   1.000
    Zr27    Zr   0.55466   0.96863   0.60800   1.000
    Zr28    Zr   0.96773   0.61926   0.46549   1.000
    Zr29    Zr   0.92193   0.52390   0.60322   1.000
    Zr30    Zr   0.88293   0.48584   0.43890   1.000
    Zr31    Zr   0.83727   0.39163   0.57694   1.000
    Zr32    Zr   0.56706   0.53432   0.08472   1.000
    Zr33    Zr   0.47499   0.39662   0.12712   1.000
    Zr34    Zr   0.32183   0.43873   0.07555   1.000
    Zr35    Zr   0.41430   0.57676   0.03156   1.000
    Zr36    Zr   0.65138   0.08485   0.38078   1.000
    Zr37    Zr   0.60223   0.12721   0.47600   1.000
    Zr38    Zr   0.39751   0.07547   0.48572   1.000
    Zr39    Zr   0.44537   0.03127   0.39178   1.000
    Zr40    Zr   0.03228   0.38071   0.53445   1.000
    Zr41    Zr   0.07808   0.47607   0.39672   1.000
    O42     O    0.38620   0.43246   0.04923   1.000
    O43     O    0.46278   0.41140   0.07501   1.000
    O44     O    0.44166   0.44595   0.96913   1.000
    O45     O    0.51815   0.42473   0.99550   1.000
    O46     O    0.37190   0.54328   0.05106   1.000
    O47     O    0.48190   0.57528   0.00431   1.000
    O48     O    0.32566   0.47426   0.07306   1.000
    O49     O    0.54749   0.49460   0.11096   1.000
    O50     O    0.55828   0.55406   0.03089   1.000
    O51     O    0.50145   0.42575   0.13216   1.000
    O52     O    0.65816   0.11111   0.39423   1.000
    O53     O    0.58888   0.03094   0.41491   1.000
    O54     O    0.42263   0.05086   0.40574   1.000
    O55     O    0.48588   0.00415   0.42041   1.000
    O56     O    0.05128   0.51348   0.41144   1.000
    O57     O    0.07533   0.44186   0.42586   1.000
    O58     O    0.63358   0.13228   0.44184   1.000
    O59     O    0.39869   0.07296   0.45271   1.000
    O60     O    0.09359   0.57960   0.42462   1.000
    O61     O    0.17160   0.59427   0.45658   1.000
    O62     O    0.95370   0.51837   0.43253   1.000
    O63     O    0.99610   0.58508   0.44582   1.000
    O64     O    0.85121   0.45276   0.47442   1.000
    O65     O    0.56461   0.95085   0.48157   1.000
    O66     O    0.46222   0.92487   0.48637   1.000
    O67     O    0.05242   0.39418   0.49472   1.000
    O68     O    0.94755   0.60577   0.50521   1.000
    O69     O    0.53801   0.07509   0.51340   1.000
    O70     O    0.43565   0.04922   0.51826   1.000
    O71     O    0.14876   0.54716   0.52558   1.000
    O72     O    0.82838   0.40566   0.54344   1.000
    O73     O    0.60156   0.92710   0.54715   1.000
    O74     O    0.36664   0.86767   0.55791   1.000
    O75     O    0.00391   0.41488   0.55413   1.000
    O76     O    0.92465   0.55809   0.57408   1.000
    O77     O    0.51423   0.99579   0.57940   1.000
    O78     O    0.41126   0.96907   0.58490   1.000
    O79     O    0.04629   0.48157   0.56745   1.000
    O80     O    0.90640   0.42034   0.57537   1.000
    O81     O    0.94873   0.48648   0.58851   1.000
    O82     O    0.57747   0.94909   0.59410   1.000
    O83     O    0.34199   0.88891   0.60556   1.000
    O84     O    0.49878   0.57425   0.86774   1.000
    O85     O    0.45247   0.50542   0.88905   1.000
    O86     O    0.53743   0.58859   0.92489   1.000
    O87     O    0.67443   0.52569   0.92701   1.000
    O88     O    0.61389   0.56749   0.95085   1.000
    O89     O    0.62815   0.45674   0.94874   1.000
    O90     O    0.50004   0.50000   0.99998   1.000
    O91     O    0.50009   1.00000   0.49992   1.000
    O92     O    0.00000   0.49998   0.49998   1.000
    N93     N    0.99716   0.41033   0.23534   1.000
    O94     O    0.13878   0.46118   0.16432   1.000
    O95     O    0.85520   0.29375   0.30844   1.000
    N96     N    0.76758   0.76461   0.64565   1.000
    O97     O    0.69708   0.83569   0.62541   1.000
    O98     O    0.83641   0.69152   0.60213   1.000
    N99     N    0.00295   0.58972   0.76454   1.000
    O100    O    0.14494   0.70628   0.69142   1.000
    O101    O    0.86131   0.53885   0.83560   1.000
    N102    N    0.23243   0.23533   0.35432   1.000
    O103    O    0.16356   0.30841   0.39783   1.000
    O104    O    0.30299   0.16427   0.37454   1.000
    N105    N    0.41312   0.64572   0.58968   1.000
    O106    O    0.43841   0.60226   0.70631   1.000
    O107    O    0.32245   0.62546   0.53878   1.000
    N108    N    0.58689   0.35425   0.41029   1.000
    O109    O    0.67755   0.37449   0.46122   1.000
    O110    O    0.56164   0.39774   0.29364   1.000
loop_
    _geom_bond_atom_site_label_1
    _geom_bond_atom_site_label_2
    _geom_bond_distance
    _geom_bond_site_symmetry_2
    _ccdc_geom_bond_type
    Zr3    O42       0.99016      .   S
    Zr34   O42       0.99016      .   S
    Zr3    O43       0.98339      .   S
    Zr33   O43       0.98339      .   S
    Zr3    O44       0.98540  1_554   S
    Zr20   O44       0.98540      .   S
    Zr3    O45       0.98738  1_554   S
    Zr23   O45       0.98738      .   S
    Zr35   O46       0.63957      .   S
    Zr14   O46       0.63957      .   S
    Zr35   O47       0.98710      .   S
    Zr0    O47       0.98710  1_556   S
    Zr14   O48       0.64096      .   S
    Zr34   O48       0.64096      .   S
    Zr32   O49       0.64083      .   S
    Zr13   O49       0.64083      .   S
    Zr32   O50       0.98539      .   S
    Zr0    O50       0.98539  1_556   S
    Zr33   O51       0.64107      .   S
    Zr13   O51       0.64107      .   S
    Zr36   O52       0.64082      .   S
    Zr15   O52       0.64082      .   S
    Zr36   O53       0.98543      .   S
    Zr1    O53       0.98543  1_565   S
    Zr39   O54       0.63954      .   S
    Zr16   O54       0.63954      .   S
    Zr39   O55       0.98704      .   S
    Zr1    O55       0.98704  1_565   S
    Zr41   O56       0.98310      .   S
    Zr5    O56       0.98310      .   S
    Zr41   O57       0.64109      .   S
    Zr17   O57       0.64109      .   S
    Zr15   O58       0.63966      .   S
    Zr37   O58       0.63966      .   S
    Zr16   O59       0.64096      .   S
    Zr38   O59       0.64096      .   S
    Zr19   O60       0.98702      .   S
    Zr5    O60       0.98702      .   S
    Zr19   O61       0.63952      .   S
    Zr6    O61       0.63952      .   S
    Zr5    O62       0.99054  1_455   S
    Zr30   O62       0.99054      .   S
    Zr5    O63       0.98523  1_455   S
    Zr28   O63       0.98523      .   S
    Zr30   O64       0.64119      .   S
    Zr12   O64       0.64119      .   S
    Zr1    O65       0.99066      .   S
    Zr26   O65       0.99066      .   S
    Zr1    O66       0.98289      .   S
    Zr25   O66       0.98289      .   S
    Zr17   O67       0.64093      .   S
    Zr40   O67       0.64093      .   S
    Zr28   O68       0.64090      .   S
    Zr11   O68       0.64090      .   S
    Zr37   O69       0.98297      .   S
    Zr4    O69       0.98297      .   S
    Zr38   O70       0.99025      .   S
    Zr4    O70       0.99025      .   S
    Zr6    O71       0.64102      .   S
    Zr18   O71       0.64102      .   S
    Zr12   O72       0.63950      .   S
    Zr31   O72       0.63950      .   S
    Zr26   O73       0.64095      .   S
    Zr10   O73       0.64095      .   S
    Zr25   O74       0.64118      .   S
    Zr9    O74       0.64118      .   S
    Zr40   O75       0.98523      .   S
    Zr2    O75       0.98523  1_655   S
    Zr11   O76       0.64111      .   S
    Zr29   O76       0.64111      .   S
    Zr4    O77       0.98626  1_545   S
    Zr27   O77       0.98626      .   S
    Zr4    O78       0.98545  1_545   S
    Zr24   O78       0.98545      .   S
    Zr18   O79       0.99035      .   S
    Zr2    O79       0.99035  1_655   S
    Zr2    O80       0.98700      .   S
    Zr31   O80       0.98700      .   S
    Zr2    O81       0.98306      .   S
    Zr29   O81       0.98306      .   S
    Zr10   O82       0.63861      .   S
    Zr27   O82       0.63861      .   S
    Zr9    O83       0.64081      .   S
    Zr24   O83       0.64081      .   S
    Zr7    O84       0.64109      .   S
    Zr21   O84       0.64109      .   S
    Zr7    O85       0.64085      .   S
    Zr20   O85       0.64085      .   S
    Zr21   O86       0.98345      .   S
    Zr0    O86       0.98345      .   S
    Zr22   O87       0.64096      .   S
    Zr8    O87       0.64096      .   S
    Zr22   O88       0.99011      .   S
    Zr0    O88       0.99011      .   S
    Zr8    O89       0.63964      .   S
    Zr23   O89       0.63964      .   S
    Zr0    O90       1.22189      .   S
    Zr3    O90       1.22189  1_554   S
    Zr1    O91       1.22161      .   S
    Zr4    O91       1.22161  1_545   S
    Zr2    O92       1.22188  1_655   S
    Zr5    O92       1.22188      .   S
    N93    O94       1.85184  1_655   S
    Zr14   O94       2.52991      .   S
    N93    O95       2.17968      .   S
    Zr15   O95       2.92242      .   S
    N96    O97       1.85170      .   S
    Zr10   O97       2.52997      .   S
    N96    O98       2.17957      .   S
    Zr11   O98       2.92236      .   S
    N99    O100      2.17966      .   S
    Zr9    O100      2.92241      .   S
    N99    O101      1.85217  1_455   S
    Zr8    O101      2.53032      .   S
    N102   O103      2.17969      .   S
    Zr17   O103      2.92248      .   S
    N102   O104      1.85198      .   S
    Zr16   O104      2.53035      .   S
    N105   O106      2.17976      .   S
    Zr7    O106      2.92261      .   S
    N105   O107      1.85187      .   S
    Zr6    O107      2.53010      .   S
    N108   O109      1.85205      .   S
    Zr12   O109      2.53018      .   S
    N108   O110      2.17970      .   S
    Zr13   O110      2.92233      .   S
