# CIF file generated by openbabel 2.4.90, see http://openbabel.sf.net
data_I
_chemical_name_common ''
_cell_length_a 12.124
_cell_length_b 15.264
_cell_length_c 15.916
_cell_angle_alpha 89.962
_cell_angle_beta 89.998
_cell_angle_gamma 89.986
_space_group_name_H-M_alt 'P 1'
_space_group_name_Hall 'P 1'
loop_
    _symmetry_equiv_pos_as_xyz
    x,y,z
loop_
    _atom_site_label
    _atom_site_type_symbol
    _atom_site_fract_x
    _atom_site_fract_y
    _atom_site_fract_z
    _atom_site_occupancy
    H0      H    0.64498   0.62173   0.90051   1.000
    H1      H    0.71509   0.91442   0.78208   1.000
    H2      H    0.53180   0.67225   0.77650   1.000
    H3      H    0.81835   0.85530   0.90596   1.000
    H4      H    0.64490   0.62171   0.09960   1.000
    H5      H    0.71523   0.91432   0.21780   1.000
    H6      H    0.53173   0.67226   0.22361   1.000
    H7      H    0.81848   0.85519   0.09401   1.000
    C8      C    0.61551   0.79744   0.76900   1.000
    C9      C    0.55790   0.82791   0.69423   1.000
    C10     C    0.65530   0.68658   0.87265   1.000
    C11     C    0.69646   0.84976   0.80727   1.000
    C12     C    0.59442   0.71463   0.80387   1.000
    C13     C    0.75337   0.81722   0.87602   1.000
    C14     C    0.61555   0.79740   0.23090   1.000
    C15     C    0.55793   0.82789   0.30570   1.000
    C16     C    0.65528   0.68654   0.12740   1.000
    C17     C    0.69656   0.84968   0.19268   1.000
    C18     C    0.59440   0.71461   0.19620   1.000
    C19     C    0.75346   0.81713   0.12397   1.000
    N20     N    0.51259   0.90613   0.59042   1.000
    N21     N    0.45276   0.83204   0.58852   1.000
    N22     N    0.47970   0.78131   0.65315   1.000
    N23     N    0.57917   0.90540   0.65633   1.000
    N24     N    0.73412   0.73681   0.90822   1.000
    N25     N    0.51267   0.90612   0.40946   1.000
    N26     N    0.45267   0.83211   0.41134   1.000
    N27     N    0.47958   0.78138   0.34677   1.000
    N28     N    0.57934   0.90533   0.34360   1.000
    N29     N    0.73415   0.73674   0.09185   1.000
loop_
    _geom_bond_atom_site_label_1
    _geom_bond_atom_site_label_2
    _geom_bond_distance
    _geom_bond_site_symmetry_2
    _ccdc_geom_bond_type
    N29    C19       1.35011      .   S
    N29    C16       1.34965      .   S
    H7     C19       1.08907      .   S
    H4     C16       1.09162      .   S
    C19    C17       1.38532      .   S
    C16    C18       1.38844      .   S
    C17    H5        1.08864      .   S
    C17    C14       1.40401      .   S
    C18    H6        1.08871      .   S
    C18    C14       1.40320      .   S
    C14    C15       1.45685      .   S
    C15    N28       1.35261      .   S
    C15    N27       1.35404      .   S
    N28    N25       1.32370      .   S
    N27    N26       1.32785      .   S
    N25    N26       1.34406      .   S
    N21    N20       1.34409      .   S
    N21    N22       1.32788      .   S
    N20    N23       1.32373      .   S
    N22    C9        1.35392      .   S
    N23    C9        1.35235      .   S
    C9     C8        1.45585      .   S
    C8     C12       1.40376      .   S
    C8     C11       1.40466      .   S
    H2     C12       1.08867      .   S
    H1     C11       1.08871      .   S
    C12    C10       1.38773      .   S
    C11    C13       1.38532      .   S
    C10    H0        1.09166      .   S
    C10    N24       1.35005      .   S
    C13    H3        1.08914      .   S
    C13    N24       1.35013      .   S
