# CIF file generated by openbabel 2.4.90, see http://openbabel.sf.net
data_I
_chemical_name_common ''
_cell_length_a 12.124
_cell_length_b 15.264
_cell_length_c 15.916
_cell_angle_alpha 89.962
_cell_angle_beta 89.998
_cell_angle_gamma 89.986
_space_group_name_H-M_alt 'P 1'
_space_group_name_Hall 'P 1'
loop_
    _symmetry_equiv_pos_as_xyz
    x,y,z
loop_
    _atom_site_label
    _atom_site_type_symbol
    _atom_site_fract_x
    _atom_site_fract_y
    _atom_site_fract_z
    _atom_site_occupancy
    Cu0     Cu   0.66696   0.18496   0.50008   1.000
    Cu1     Cu   0.16694   0.31503   0.99996   1.000
    Cu2     Cu   1.00000   0.50000   0.99999   1.000
    Cu3     Cu   0.33299   0.81505   0.49993   1.000
    Cl4     Cl   0.27553   0.96590   0.49988   1.000
    Cl5     Cl   0.72444   0.03411   0.50011   1.000
    Cl6     Cl   0.22438   0.46586   0.99990   1.000
    Cl7     Cl   0.77561   0.53412   0.00000   1.000
loop_
    _geom_bond_atom_site_label_1
    _geom_bond_atom_site_label_2
    _geom_bond_distance
    _geom_bond_site_symmetry_2
    _ccdc_geom_bond_type
    Cl4    Cu3       2.40547      .   S
    Cu0    Cl5       2.40555      .   S
    Cl6    Cu1       2.40550      .   S
    Cu2    Cl7       2.76972  1_556   S
