# CIF file generated by openbabel 2.4.90, see http://openbabel.sf.net
data_I
_chemical_name_common ''
_cell_length_a 12.124
_cell_length_b 15.264
_cell_length_c 15.916
_cell_angle_alpha 89.962
_cell_angle_beta 89.998
_cell_angle_gamma 89.986
_space_group_name_H-M_alt 'P 1'
_space_group_name_Hall 'P 1'
loop_
    _symmetry_equiv_pos_as_xyz
    x,y,z
loop_
    _atom_site_label
    _atom_site_type_symbol
    _atom_site_fract_x
    _atom_site_fract_y
    _atom_site_fract_z
    _atom_site_occupancy
    N0      N    0.37715   0.20537   0.77231   1.000
    N1      N    0.87715   0.29463   0.72768   1.000
    N2      N    0.12276   0.70546   0.72765   1.000
    N3      N    0.37721   0.20542   0.22769   1.000
    N4      N    0.12282   0.70534   0.27233   1.000
    N5      N    0.87718   0.29459   0.27235   1.000
    Zr6     Zr   0.30426   0.89048   0.49991   1.000
    O7      O    0.25373   0.81885   0.43155   1.000
    O8      O    0.25371   0.81890   0.56833   1.000
    Zr9     Zr   0.69570   0.10953   0.50010   1.000
    O10     O    0.74624   0.18113   0.43167   1.000
    O11     O    0.74623   0.18115   0.56846   1.000
    O12     O    0.59393   0.15023   0.42091   1.000
    O13     O    0.59391   0.15022   0.57922   1.000
    Zr14    Zr   0.19566   0.39045   0.99993   1.000
    O15     O    0.09389   0.34975   0.07912   1.000
    O16     O    0.09389   0.34977   0.92080   1.000
    O17     O    0.24623   0.31886   0.06836   1.000
    O18     O    0.24621   0.31884   0.93156   1.000
    Zr19    Zr   0.88780   0.51706   1.00000   1.000
    O20     O    0.91161   0.44544   0.07939   1.000
    O21     O    0.97620   0.57160   0.07939   1.000
    O22     O    0.91160   0.44546   0.92060   1.000
    O23     O    0.97617   0.57163   0.92060   1.000
loop_
    _geom_bond_atom_site_label_1
    _geom_bond_atom_site_label_2
    _geom_bond_distance
    _geom_bond_site_symmetry_2
    _ccdc_geom_bond_type
    Zr6    O7        1.66028      .   S
    N4     O7        3.45683      .   S
    Zr6    O8        1.65959      .   S
    N2     O8        3.45605      .   S
    Zr9    O10       1.65967      .   S
    N5     O10       3.45614      .   S
    Zr9    O11       1.66017      .   S
    N1     O11       3.45678      .   S
    Zr9    O12       1.86959      .   S
    N3     O12       4.13130      .   S
    Zr9    O13       1.86950      .   S
    N0     O13       4.13070      .   S
    Zr14   O15       1.86973  1_556   S
    N5     O15       4.13135  1_655   S
    Zr14   O16       1.86962      .   S
    N1     O16       4.13115  1_655   S
    Zr14   O17       1.65954  1_556   S
    N3     O17       3.45600      .   S
    Zr14   O18       1.66001      .   S
    N0     O18       3.45660      .   S
    Zr19   O20       1.69503  1_556   S
    N5     O20       3.85998      .   S
    Zr19   O21       1.85482  1_556   S
    N4     O21       4.09486  1_455   S
    Zr19   O22       1.69595      .   S
    N1     O22       3.86169      .   S
    Zr19   O23       1.85397      .   S
    N2     O23       4.09333  1_455   S
