# CIF file generated by openbabel 2.4.90, see http://openbabel.sf.net
data_I
_chemical_name_common ''
_cell_length_a 13.218
_cell_length_b 13.2
_cell_length_c 18.517
_cell_angle_alpha 83.284
_cell_angle_beta 83.11
_cell_angle_gamma 67.658
_space_group_name_H-M_alt 'P 1'
_space_group_name_Hall 'P 1'
loop_
    _symmetry_equiv_pos_as_xyz
    x,y,z
loop_
    _atom_site_label
    _atom_site_type_symbol
    _atom_site_fract_x
    _atom_site_fract_y
    _atom_site_fract_z
    _atom_site_occupancy
    Lv0     Lv   0.54964   0.63310   0.33601   1.000
    Lv1     Lv   0.36794   0.44975   0.16391   1.000
    Lv2     Lv   0.45038   0.36688   0.66399   1.000
    Lv3     Lv   0.63209   0.55022   0.83608   1.000
