# CIF file generated by openbabel 2.4.90, see http://openbabel.sf.net
data_I
_chemical_name_common ''
_cell_length_a 13.218
_cell_length_b 13.2
_cell_length_c 18.517
_cell_angle_alpha 83.284
_cell_angle_beta 83.11
_cell_angle_gamma 67.658
_space_group_name_H-M_alt 'P 1'
_space_group_name_Hall 'P 1'
loop_
    _symmetry_equiv_pos_as_xyz
    x,y,z
loop_
    _atom_site_label
    _atom_site_type_symbol
    _atom_site_fract_x
    _atom_site_fract_y
    _atom_site_fract_z
    _atom_site_occupancy
    Zn0     Zn   0.09851   0.71620   0.57764   1.000
    Zn1     Zn   0.04356   0.29343   0.71867   1.000
    Zn2     Zn   0.28059   0.90170   0.92234   1.000
    Zn3     Zn   0.29338   0.04363   0.21850   1.000
    Zn4     Zn   0.90151   0.28378   0.42237   1.000
    Zn5     Zn   0.95647   0.70654   0.28133   1.000
    Zn6     Zn   0.71945   0.09828   0.07767   1.000
    Zn7     Zn   0.86202   0.13788   0.74986   1.000
    Zn8     Zn   0.13800   0.86210   0.25015   1.000
    H9      H    0.81902   0.19160   0.92575   1.000
    H10     H    0.69020   0.93956   0.96188   1.000
    H11     H    0.07207   0.94507   0.64796   1.000
    H12     H    0.86398   0.76550   0.67263   1.000
    H13     H    0.80820   0.18264   0.57379   1.000
    H14     H    0.06041   0.31102   0.53853   1.000
    H15     H    0.05301   0.92809   0.85119   1.000
    H16     H    0.23302   0.13574   0.82782   1.000
    H17     H    0.18101   0.80838   0.07425   1.000
    H18     H    0.30985   0.06040   0.03813   1.000
    H19     H    0.92796   0.05491   0.35200   1.000
    H20     H    0.13603   0.23449   0.32737   1.000
    Zn21    Zn   0.70664   0.95635   0.78148   1.000
    H22     H    0.19181   0.81735   0.42622   1.000
    H23     H    0.93963   0.68893   0.46147   1.000
    H24     H    0.94705   0.07188   0.14882   1.000
    H25     H    0.76701   0.86425   0.17218   1.000
    C26     C    0.61538   0.17636   0.71330   1.000
    C27     C    0.24715   0.55643   0.61686   1.000
    C28     C    0.22311   0.33588   0.65810   1.000
    C29     C    0.79253   0.12544   0.91840   1.000
    C30     C    0.72601   0.99847   0.93756   1.000
    C31     C    0.00342   0.91909   0.66390   1.000
    C32     C    0.89819   0.82750   0.67596   1.000
    C33     C    0.82351   0.38510   0.78712   1.000
    C34     C    0.44138   0.75354   0.88301   1.000
    C35     C    0.66182   0.77843   0.84194   1.000
    C36     C    0.87432   0.20896   0.58130   1.000
    C37     C    0.00000   0.27537   0.56264   1.000
    C38     C    0.07930   0.99662   0.83550   1.000
    C39     C    0.17107   0.10169   0.82411   1.000
    C40     C    0.38464   0.82363   0.28665   1.000
    C41     C    0.75287   0.44356   0.38315   1.000
    C42     C    0.77691   0.66410   0.34187   1.000
    C43     C    0.20750   0.87454   0.08156   1.000
    C44     C    0.27404   0.00000   0.06240   1.000
    C45     C    0.99660   0.08089   0.33611   1.000
    C46     C    0.10183   0.17248   0.32404   1.000
    C47     C    0.17651   0.61488   0.21285   1.000
    C48     C    0.55866   0.24644   0.11698   1.000
    C49     C    0.33822   0.22154   0.15806   1.000
    C50     C    0.12570   0.79102   0.41871   1.000
    C51     C    0.99873   0.72458   0.43737   1.000
    C52     C    0.92075   0.00336   0.16451   1.000
    C53     C    0.82896   0.89830   0.17590   1.000
    N54     N    0.79558   0.08962   0.85385   1.000
    N55     N    0.75268   0.00000   0.86625   1.000
    N56     N    0.75008   0.07036   0.97274   1.000
    N57     N    0.91614   0.97373   0.70688   1.000
    N58     N    0.84877   0.91479   0.71427   1.000
    N59     N    0.99599   0.82672   0.64290   1.000
    N60     N    0.91021   0.20503   0.64592   1.000
    N61     N    0.99142   0.24789   0.63381   1.000
    N62     N    0.92933   0.25200   0.52720   1.000
    N63     N    0.02558   0.08381   0.79240   1.000
    N64     N    0.08461   0.15106   0.78543   1.000
    N65     N    0.17115   0.00000   0.85702   1.000
    N66     N    0.20445   0.91036   0.14615   1.000
    N67     N    0.24736   0.99159   0.13376   1.000
    N68     N    0.24997   0.92961   0.02727   1.000
    N69     N    0.08388   0.02625   0.29310   1.000
    N70     N    0.15124   0.08519   0.28573   1.000
    N71     N    0.00000   0.17326   0.35711   1.000
    N72     N    0.08983   0.79493   0.35409   1.000
    N73     N    0.00000   0.75205   0.36619   1.000
    N74     N    0.07070   0.74797   0.47274   1.000
    N75     N    0.97445   0.91616   0.20762   1.000
    N76     N    0.91542   0.84892   0.21450   1.000
    N77     N    0.82889   0.99596   0.14299   1.000
    O78     O    0.70953   0.18239   0.70377   1.000
    O79     O    0.59341   0.09352   0.74323   1.000
    O80     O    0.14987   0.55560   0.61890   1.000
    O81     O    0.26262   0.64616   0.59442   1.000
    O82     O    0.19919   0.31555   0.60016   1.000
    O83     O    0.16925   0.33387   0.72182   1.000
    O84     O    0.81747   0.29087   0.79616   1.000
    O85     O    0.90676   0.40698   0.75799   1.000
    O86     O    0.44131   0.85127   0.88069   1.000
    O87     O    0.35202   0.73740   0.90562   1.000
    O88     O    0.67999   0.80422   0.89999   1.000
    O89     O    0.66599   0.83070   0.77800   1.000
    O90     O    0.29049   0.81759   0.29624   1.000
    O91     O    0.40661   0.90646   0.25678   1.000
    O92     O    0.85015   0.44438   0.38104   1.000
    O93     O    0.73740   0.35382   0.40559   1.000
    O94     O    0.80083   0.68443   0.39985   1.000
    O95     O    0.83077   0.66611   0.27819   1.000
    O96     O    0.18257   0.70910   0.20385   1.000
    O97     O    0.09321   0.59302   0.24191   1.000
    O98     O    0.55874   0.14870   0.11933   1.000
    O99     O    0.64802   0.26259   0.09437   1.000
    O100    O    0.32004   0.19575   0.10002   1.000
    O101    O    0.33403   0.16928   0.22201   1.000
loop_
    _geom_bond_atom_site_label_1
    _geom_bond_atom_site_label_2
    _geom_bond_distance
    _geom_bond_site_symmetry_2
    _ccdc_geom_bond_type
    N68    C44       1.34292  1_565   S
    N68    C43       1.36310      .   S
    N68    Zn2       1.98497  1_554   S
    H18    C44       1.10170      .   S
    C44    N67       1.32905  1_545   S
    H17    C43       1.08401      .   S
    Zn6    O99       2.05449      .   S
    Zn6    O98       2.05000      .   S
    Zn6    N77       1.98291  1_545   S
    Zn6    N56       1.98502  1_554   S
    C43    N66       1.32737      .   S
    O99    C48       1.29130      .   S
    O100   C49       1.24031      .   S
    C48    O98       1.28535      .   S
    N67    N66       1.37745      .   S
    N67    Zn3       2.02564  1_565   S
    N77    C52       1.36296  1_565   S
    N77    C53       1.35969      .   S
    N66    Zn8       2.14906      .   S
    H24    C52       1.08472      .   S
    C49    O101      1.30513      .   S
    C52    N75       1.32886  1_545   S
    H25    C53       1.08526      .   S
    C53    N76       1.32761      .   S
    O96    C47       1.26701      .   S
    O96    Zn8       2.13075      .   S
    N75    N76       1.37446      .   S
    N75    Zn8       2.21514  1_655   S
    C47    O97       1.28374      .   S
    N76    Zn5       2.04937      .   S
    Zn3    O101      1.93776      .   S
    Zn3    O91       1.97861  1_545   S
    Zn3    N70       2.04830      .   S
    O97    Zn5       1.98125  1_455   S
    Zn8    N69       2.21973  1_565   S
    Zn8    O90       2.12863      .   S
    Zn8    N72       2.15219      .   S
    O91    C40       1.28347      .   S
    O95    Zn5       1.93735      .   S
    O95    C42       1.30521      .   S
    Zn5    N73       1.96508  1_655   S
    N70    N69       1.37454      .   S
    N70    C46       1.32870      .   S
    C40    O90       1.26715      .   S
    N69    C45       1.32920  1_455   S
    C46    H20       1.08527      .   S
    C46    N71       1.40710      .   S
    C45    H19       1.08461      .   S
    C45    N71       1.34040  1_655   S
    C42    O94       1.24014      .   S
    N72    N73       1.48255      .   S
    N72    C50       1.32748      .   S
    N71    Zn4       1.96836  1_455   S
    N73    C51       1.32534  1_455   S
    O92    C41       1.28584      .   S
    O92    Zn4       2.04733      .   S
    C41    O93       1.29076      .   S
    O93    Zn4       2.05582      .   S
    C50    H22       1.08405      .   S
    C50    N74       1.36340      .   S
    Zn4    N62       1.98563      .   S
    C51    H23       1.08522      .   S
    C51    N74       1.35984  1_655   S
    N74    Zn0       1.98687      .   S
    N62    C37       1.34613  1_655   S
    N62    C36       1.36419      .   S
    H14    C37       1.09972      .   S
    C37    N61       1.32846  1_455   S
    H13    C36       1.08405      .   S
    Zn0    O81       2.05582      .   S
    Zn0    O80       2.04694      .   S
    Zn0    N59       1.98527  1_455   S
    C36    N60       1.32753      .   S
    O81    C27       1.29076      .   S
    O82    C28       1.23947      .   S
    C27    O80       1.28596      .   S
    N61    N60       1.37733      .   S
    N61    Zn1       2.02514  1_655   S
    N59    C31       1.36326  1_655   S
    N59    C32       1.35928      .   S
    N60    Zn7       2.15214      .   S
    H11    C31       1.08475      .   S
    C28    O83       1.30584      .   S
    C31    N57       1.32890  1_455   S
    H12    C32       1.08526      .   S
    C32    N58       1.32867      .   S
    O78    C26       1.26712      .   S
    O78    Zn7       2.12866      .   S
    N57    N58       1.37454      .   S
    N57    Zn7       2.21999  1_565   S
    C26    O79       1.28384      .   S
    N58    Zn21      2.04807      .   S
    Zn1    O83       1.93734      .   S
    Zn1    O85       1.98114  1_455   S
    Zn1    N64       2.04856      .   S
    O79    Zn21      1.97842  1_545   S
    Zn7    N63       2.21535  1_655   S
    Zn7    O84       2.13068      .   S
    Zn7    N54       2.14890      .   S
    O85    C33       1.28374      .   S
    O89    Zn21      1.93766      .   S
    O89    C35       1.30499      .   S
    Zn21   N55       1.96814  1_565   S
    N64    N63       1.37439      .   S
    N64    C39       1.32853      .   S
    C33    O84       1.26700      .   S
    N63    C38       1.32879  1_545   S
    C39    H16       1.08526      .   S
    C39    N65       1.40741      .   S
    C38    H15       1.08472      .   S
    C38    N65       1.34024  1_565   S
    C35    O88       1.24046      .   S
    N54    N55       1.47944      .   S
    N54    C29       1.32667      .   S
    N65    Zn2       1.96590  1_545   S
    N55    C30       1.32504  1_545   S
    O86    C34       1.28537      .   S
    O86    Zn2       2.05007      .   S
    C34    O87       1.29131      .   S
    O87    Zn2       2.05453      .   S
    C29    H9        1.08421      .   S
    C29    N56       1.36366      .   S
    C30    H10       1.08544      .   S
    C30    N56       1.36006  1_565   S
