# CIF file generated by openbabel 2.4.90, see http://openbabel.sf.net
data_I
_chemical_name_common ''
_cell_length_a 13.218
_cell_length_b 13.2
_cell_length_c 18.517
_cell_angle_alpha 83.284
_cell_angle_beta 83.11
_cell_angle_gamma 67.658
_space_group_name_H-M_alt 'P 1'
_space_group_name_Hall 'P 1'
loop_
    _symmetry_equiv_pos_as_xyz
    x,y,z
loop_
    _atom_site_label
    _atom_site_type_symbol
    _atom_site_fract_x
    _atom_site_fract_y
    _atom_site_fract_z
    _atom_site_occupancy
    C0      C    0.61538   0.17636   0.71330   1.000
    C1      C    0.24715   0.55643   0.61686   1.000
    C2      C    0.22311   0.33588   0.65810   1.000
    C3      C    0.82351   0.38510   0.78712   1.000
    C4      C    0.44138   0.75354   0.88301   1.000
    C5      C    0.66182   0.77843   0.84194   1.000
    C6      C    0.38464   0.82363   0.28665   1.000
    C7      C    0.75287   0.44356   0.38315   1.000
    C8      C    0.77691   0.66410   0.34187   1.000
    C9      C    0.17651   0.61488   0.21285   1.000
    C10     C    0.55866   0.24644   0.11698   1.000
    C11     C    0.33822   0.22154   0.15806   1.000
