# CIF file generated by openbabel 2.4.90, see http://openbabel.sf.net
data_I
_chemical_name_common ''
_cell_length_a 13.218
_cell_length_b 13.2
_cell_length_c 18.517
_cell_angle_alpha 83.284
_cell_angle_beta 83.11
_cell_angle_gamma 67.658
_space_group_name_H-M_alt 'P 1'
_space_group_name_Hall 'P 1'
loop_
    _symmetry_equiv_pos_as_xyz
    x,y,z
loop_
    _atom_site_label
    _atom_site_type_symbol
    _atom_site_fract_x
    _atom_site_fract_y
    _atom_site_fract_z
    _atom_site_occupancy
    Zr0     Zr   0.70664   0.95635   0.78148   1.000
    Zr1     Zr   0.09851   0.71620   0.57764   1.000
    Zr2     Zr   0.04356   0.29343   0.71867   1.000
    Zr3     Zr   0.28059   0.90170   0.92234   1.000
    Zr4     Zr   0.29338   0.04363   0.21850   1.000
    Zr5     Zr   0.90151   0.28378   0.42237   1.000
    Zr6     Zr   0.95647   0.70654   0.28133   1.000
    Zr7     Zr   0.71945   0.09828   0.07767   1.000
    Zr8     Zr   0.86202   0.13788   0.74986   1.000
    Zr9     Zr   0.13800   0.86210   0.25015   1.000
    N10     N    0.54964   0.63310   0.33601   1.000
    N11     N    0.36794   0.44975   0.16391   1.000
    N12     N    0.45038   0.36688   0.66399   1.000
    N13     N    0.63209   0.55022   0.83608   1.000
    C14     C    0.94265   0.88177   0.67493   1.000
    O15     O    0.86018   0.90867   0.71140   1.000
    O16     O    0.99495   0.82661   0.64260   1.000
    O17     O    0.91587   0.96879   0.70165   1.000
    C18     C    0.05948   0.75955   0.41954   1.000
    O19     O    0.07204   0.74582   0.47237   1.000
    O20     O    0.08670   0.79403   0.36083   1.000
    O21     O    0.01886   0.74442   0.37165   1.000
    C22     C    0.76087   0.05929   0.91949   1.000
    O23     O    0.79483   0.08652   0.86067   1.000
    O24     O    0.74526   0.01873   0.87168   1.000
    O25     O    0.74782   0.07180   0.97235   1.000
    C26     C    0.58848   0.21924   0.11023   1.000
    O27     O    0.51335   0.29529   0.12822   1.000
    C28     C    0.66927   0.80445   0.83998   1.000
    O29     O    0.65572   0.72124   0.83915   1.000
    O30     O    0.67779   0.84899   0.80986   1.000
    C31     C    0.41157   0.78074   0.88977   1.000
    O32     O    0.48669   0.70468   0.87177   1.000
    C33     C    0.93913   0.24042   0.58046   1.000
    O34     O    0.92727   0.25415   0.52762   1.000
    O35     O    0.97831   0.25554   0.62835   1.000
    O36     O    0.91262   0.20593   0.63917   1.000
    C37     C    0.11682   0.05672   0.82478   1.000
    O38     O    0.09045   0.13948   0.78842   1.000
    O39     O    0.03031   0.08378   0.79796   1.000
    O40     O    0.17135   0.00378   0.85723   1.000
    C41     C    0.23917   0.93927   0.08050   1.000
    O42     O    0.25477   0.97844   0.12832   1.000
    O43     O    0.20520   0.91275   0.13933   1.000
    O44     O    0.25222   0.92746   0.02765   1.000
    C45     C    0.36058   0.84923   0.27989   1.000
    O46     O    0.42578   0.77659   0.29890   1.000
    O47     O    0.35529   0.91214   0.25877   1.000
    O48     O    0.28741   0.84454   0.27654   1.000
    C49     C    0.15076   0.63900   0.21954   1.000
    O50     O    0.22376   0.57372   0.20069   1.000
    O51     O    0.08780   0.64439   0.24058   1.000
    O52     O    0.15552   0.71230   0.22327   1.000
    C53     C    0.33077   0.19552   0.16003   1.000
    O54     O    0.32224   0.15099   0.19014   1.000
    O55     O    0.34431   0.27873   0.16085   1.000
    C56     C    0.19718   0.32843   0.66003   1.000
    O57     O    0.15179   0.32104   0.69014   1.000
    O58     O    0.28005   0.34236   0.66090   1.000
    C59     C    0.05679   0.11821   0.32507   1.000
    O60     O    0.00377   0.17337   0.35740   1.000
    O61     O    0.13955   0.09131   0.28859   1.000
    O62     O    0.08387   0.03119   0.29835   1.000
    C63     C    0.63944   0.15076   0.72010   1.000
    O64     O    0.64474   0.08785   0.74123   1.000
    O65     O    0.71261   0.15545   0.72346   1.000
    O66     O    0.57424   0.22339   0.70109   1.000
    C67     C    0.78014   0.41392   0.38993   1.000
    O68     O    0.70406   0.48859   0.37185   1.000
    C69     C    0.88322   0.94269   0.17522   1.000
    O70     O    0.90958   0.86021   0.21157   1.000
    O71     O    0.96972   0.91591   0.20205   1.000
    O72     O    0.82870   0.99491   0.14277   1.000
    C73     C    0.80284   0.67155   0.33997   1.000
    O74     O    0.71997   0.65762   0.33909   1.000
    O75     O    0.84823   0.67894   0.30986   1.000
    C76     C    0.84925   0.36098   0.78042   1.000
    O77     O    0.77626   0.42626   0.79928   1.000
    O78     O    0.84450   0.28768   0.77672   1.000
    O79     O    0.91220   0.35559   0.75938   1.000
    C80     C    0.21988   0.58606   0.61006   1.000
    O81     O    0.29595   0.51139   0.62815   1.000
    O82     O    0.62495   0.18560   0.10124   1.000
    O83     O    0.18613   0.62230   0.60110   1.000
    O84     O    0.81389   0.37768   0.39888   1.000
    O85     O    0.37510   0.81438   0.89876   1.000
loop_
    _geom_bond_atom_site_label_1
    _geom_bond_atom_site_label_2
    _geom_bond_distance
    _geom_bond_site_symmetry_2
    _ccdc_geom_bond_type
    C14    O15       1.16437      .   S
    Zr0    O15       2.18790      .   S
    C14    O16       0.99314      .   S
    Zr1    O16       1.98572  1_455   S
    C14    O17       1.21293      .   S
    Zr8    O17       2.32189  1_545   S
    C18    O19       0.99589      .   S
    Zr1    O19       1.98913      .   S
    C18    O20       1.19726      .   S
    Zr9    O20       2.27301      .   S
    C18    O21       1.16266      .   S
    Zr6    O21       2.13711  1_655   S
    C22    O23       1.19612      .   S
    Zr8    O23       2.27020      .   S
    C22    O24       1.16261      .   S
    Zr0    O24       2.13874  1_565   S
    C22    O25       0.99532      .   S
    Zr7    O25       1.98760  1_554   S
    C26    O27       1.16012      .   S
    N11    O27       2.30625      .   S
    C28    O29       1.18011      .   S
    N13    O29       2.40150      .   S
    C28    O30       0.79241      .   S
    Zr0    O30       1.61817      .   S
    C31    O32       1.16013      .   S
    N13    O32       2.30624      .   S
    C33    O34       0.99413      .   S
    Zr5    O34       1.98669      .   S
    C33    O35       1.15095      .   S
    Zr2    O35       2.15893  1_455   S
    C33    O36       1.19422      .   S
    Zr8    O36       2.26990      .   S
    C37    O38       1.16757      .   S
    Zr2    O38       2.19142      .   S
    C37    O39       1.21083      .   S
    Zr8    O39       2.31735  1_655   S
    C37    O40       0.99575      .   S
    Zr3    O40       1.97807  1_565   S
    C41    O42       1.15138      .   S
    Zr4    O42       2.15970  1_545   S
    C41    O43       1.19313      .   S
    Zr9    O43       2.26721      .   S
    C41    O44       0.99319      .   S
    Zr3    O44       1.98540  1_556   S
    C45    O46       1.07311      .   S
    N10    O46       2.08519      .   S
    C45    O47       0.85670      .   S
    Zr4    O47       1.73267  1_545   S
    C45    O48       1.00189      .   S
    Zr9    O48       2.01238      .   S
    C49    O50       1.07362      .   S
    N11    O50       2.08614      .   S
    C49    O51       0.85622      .   S
    Zr6    O51       1.73313  1_655   S
    C49    O52       1.00395      .   S
    Zr9    O52       2.01638      .   S
    C53    O54       0.79234      .   S
    Zr4    O54       1.61810      .   S
    C53    O55       1.18010      .   S
    N11    O55       2.40149      .   S
    C56    O57       0.79488      .   S
    Zr2    O57       1.62136      .   S
    C56    O58       1.17981      .   S
    N12    O58       2.40132      .   S
    C59    O60       0.99656      .   S
    Zr5    O60       1.98011  1_655   S
    C59    O61       1.16725      .   S
    Zr4    O61       2.19087      .   S
    C59    O62       1.21249      .   S
    Zr9    O62       2.32136  1_565   S
    C63    O64       0.85673      .   S
    Zr0    O64       1.73260  1_565   S
    C63    O65       1.00192      .   S
    Zr8    O65       2.01246      .   S
    C63    O66       1.07312      .   S
    N12    O66       2.08516      .   S
    C67    O68       1.15967      .   S
    N10    O68       2.30526      .   S
    C69    O70       1.16457      .   S
    Zr6    O70       2.18882      .   S
    C69    O71       1.21128      .   S
    Zr9    O71       2.31765  1_455   S
    C69    O72       0.99234      .   S
    Zr7    O72       1.98373  1_545   S
    C73    O74       1.17982      .   S
    N10    O74       2.40130      .   S
    C73    O75       0.79484      .   S
    Zr6    O75       1.62137      .   S
    C76    O77       1.07361      .   S
    N13    O77       2.08612      .   S
    C76    O78       1.00386      .   S
    Zr8    O78       2.01621      .   S
    C76    O79       0.85620      .   S
    Zr2    O79       1.73305  1_455   S
    C80    O81       1.15971      .   S
    N12    O81       2.30526      .   S
    C26    O82       0.54087      .   S
    Zr7    O82       1.40421      .   S
    C80    O83       0.54064      .   S
    Zr1    O83       1.40347      .   S
    C67    O84       0.54065      .   S
    Zr5    O84       1.40359      .   S
    Zr3    O85       1.40427      .   S
    C31    O85       0.54089      .   S
