# CIF file generated by openbabel 2.4.90, see http://openbabel.sf.net
data_I
_chemical_name_common ''
_cell_length_a 11.706
_cell_length_b 20.742
_cell_length_c 23.396
_cell_angle_alpha 86.75
_cell_angle_beta 87.624
_cell_angle_gamma 83.614
_space_group_name_H-M_alt 'P 1'
_space_group_name_Hall 'P 1'
loop_
    _symmetry_equiv_pos_as_xyz
    x,y,z
loop_
    _atom_site_label
    _atom_site_type_symbol
    _atom_site_fract_x
    _atom_site_fract_y
    _atom_site_fract_z
    _atom_site_occupancy
    H0      H    0.24477   0.47764   0.08415   1.000
    H1      H    0.24477   0.47764   0.58410   1.000
    H2      H    0.24476   0.97764   0.08415   1.000
    H3      H    0.24477   0.97763   0.58415   1.000
    H4      H    0.74477   0.47764   0.08415   1.000
    H5      H    0.74478   0.47764   0.58415   1.000
    H6      H    0.74477   0.97764   0.08415   1.000
    H7      H    0.74477   0.97763   0.58415   1.000
    H8      H    0.00947   0.14103   0.36555   1.000
    H9      H    0.00947   0.14102   0.86550   1.000
    H10     H    0.00946   0.64102   0.36555   1.000
    H11     H    0.00947   0.64102   0.86556   1.000
    H12     H    0.50949   0.14103   0.36555   1.000
    H13     H    0.50949   0.14102   0.86550   1.000
    H14     H    0.50948   0.64103   0.36555   1.000
    H15     H    0.50950   0.64102   0.86556   1.000
    H16     H    0.38171   0.19595   0.36228   1.000
    H17     H    0.38171   0.19594   0.86229   1.000
    H18     H    0.38170   0.69594   0.36228   1.000
    H19     H    0.38171   0.69593   0.86220   1.000
    H20     H    0.88172   0.19595   0.36228   1.000
    H21     H    0.88172   0.19594   0.86229   1.000
    H22     H    0.88171   0.69594   0.36228   1.000
    H23     H    0.88173   0.69594   0.86228   1.000
    H24     H    0.33696   0.19061   0.23679   1.000
    H25     H    0.33697   0.19060   0.73680   1.000
    H26     H    0.33696   0.69060   0.23679   1.000
    H27     H    0.33697   0.69059   0.73680   1.000
    H28     H    0.83698   0.19061   0.23679   1.000
    H29     H    0.83699   0.19060   0.73680   1.000
    H30     H    0.83698   0.69060   0.23679   1.000
    H31     H    0.83698   0.69060   0.73680   1.000
    H32     H    0.34064   0.25913   0.27908   1.000
    H33     H    0.34063   0.25914   0.77908   1.000
    H34     H    0.34062   0.75914   0.27907   1.000
    H35     H    0.34064   0.75912   0.77909   1.000
    H36     H    0.84065   0.25913   0.27908   1.000
    H37     H    0.84065   0.25914   0.77908   1.000
    H38     H    0.84064   0.75914   0.27907   1.000
    H39     H    0.84066   0.75912   0.77909   1.000
    H40     H    0.01287   0.27228   0.32991   1.000
    H41     H    0.01288   0.27229   0.82992   1.000
    H42     H    0.01287   0.77229   0.32991   1.000
    H43     H    0.01287   0.77227   0.82992   1.000
    H44     H    0.51288   0.27228   0.32991   1.000
    H45     H    0.51290   0.27229   0.82990   1.000
    H46     H    0.51289   0.77229   0.32991   1.000
    H47     H    0.51289   0.77227   0.82992   1.000
    H48     H    0.13434   0.21206   0.32378   1.000
    H49     H    0.13435   0.21206   0.82378   1.000
    H50     H    0.13434   0.71206   0.32378   1.000
    H51     H    0.13435   0.71205   0.82379   1.000
    H52     H    0.98712   0.72768   0.67010   1.000
    H53     H    0.36563   0.28792   0.17622   1.000
    H54     H    0.36564   0.28792   0.67623   1.000
    H55     H    0.36563   0.78792   0.17622   1.000
    H56     H    0.63436   0.21206   0.32378   1.000
    H57     H    0.63437   0.21206   0.82370   1.000
    H58     H    0.63436   0.71206   0.32378   1.000
    H59     H    0.63437   0.71205   0.82379   1.000
    H60     H    0.45579   0.00086   0.09969   1.000
    H61     H    0.45580   0.00085   0.59969   1.000
    H62     H    0.45579   0.50085   0.09969   1.000
    H63     H    0.45579   0.50084   0.59969   1.000
    H64     H    0.95580   0.00086   0.09969   1.000
    H65     H    0.95581   0.00085   0.59969   1.000
    H66     H    0.95580   0.50085   0.09969   1.000
    H67     H    0.95580   0.50084   0.59969   1.000
    H68     H    0.42352   0.07649   0.06069   1.000
    H69     H    0.42353   0.07648   0.56070   1.000
    H70     H    0.42352   0.57648   0.06069   1.000
    H71     H    0.42353   0.57648   0.56070   1.000
    H72     H    0.92353   0.07649   0.06069   1.000
    H73     H    0.92354   0.07648   0.56000   1.000
    H74     H    0.92353   0.57648   0.06069   1.000
    H75     H    0.92354   0.57648   0.56000   1.000
    H76     H    0.41435   0.49786   0.48343   1.000
    H77     H    0.41435   0.49785   0.98343   1.000
    H78     H    0.41434   0.99785   0.48343   1.000
    H79     H    0.41435   0.99785   0.98343   1.000
    H80     H    0.91435   0.49786   0.48343   1.000
    H81     H    0.91436   0.49785   0.98343   1.000
    H82     H    0.91435   0.99785   0.48343   1.000
    H83     H    0.91436   0.99785   0.98343   1.000
    C84     C    0.43710   0.15909   0.33824   1.000
    C85     C    0.43711   0.15909   0.83825   1.000
    C86     C    0.43710   0.65910   0.33824   1.000
    C87     C    0.43711   0.65908   0.83825   1.000
    C88     C    0.93712   0.15909   0.33820   1.000
    H89     H    0.41632   0.42901   0.03340   1.000
    H90     H    0.41633   0.42900   0.53340   1.000
    H91     H    0.41632   0.92900   0.03340   1.000
    H92     H    0.41633   0.92900   0.53340   1.000
    H93     H    0.91633   0.42900   0.03344   1.000
    H94     H    0.91633   0.42900   0.53340   1.000
    H95     H    0.91633   0.92900   0.03340   1.000
    H96     H    0.91633   0.92899   0.53340   1.000
    H97     H    0.17552   0.09115   0.05839   1.000
    H98     H    0.17553   0.09114   0.55840   1.000
    H99     H    0.17552   0.59114   0.05839   1.000
    H100    H    0.17553   0.59114   0.55839   1.000
    H101    H    0.67553   0.09115   0.05839   1.000
    H102    H    0.67553   0.09114   0.55840   1.000
    H103    H    0.67552   0.59114   0.05839   1.000
    H104    H    0.67553   0.59114   0.55800   1.000
    H105    H    0.27538   0.09278   0.49820   1.000
    H106    H    0.27539   0.09278   0.99828   1.000
    H107    H    0.27538   0.59278   0.49828   1.000
    H108    H    0.27539   0.59277   0.99828   1.000
    H109    H    0.77539   0.09278   0.49820   1.000
    H110    H    0.77539   0.09278   0.99828   1.000
    H111    H    0.77539   0.59278   0.49828   1.000
    H112    H    0.77539   0.59277   0.99828   1.000
    H113    H    0.25516   0.02235   0.41580   1.000
    H114    H    0.25517   0.02234   0.91585   1.000
    H115    H    0.25516   0.52234   0.41585   1.000
    H116    H    0.25517   0.52233   0.91585   1.000
    H117    H    0.75517   0.02235   0.41580   1.000
    H118    H    0.75517   0.02234   0.91585   1.000
    H119    H    0.75516   0.52234   0.41585   1.000
    H120    H    0.75517   0.52234   0.91585   1.000
    H121    H    0.49047   0.35895   0.13440   1.000
    H122    H    0.49047   0.35894   0.63446   1.000
    H123    H    0.49046   0.85894   0.13445   1.000
    H124    H    0.49048   0.85894   0.63446   1.000
    H125    H    0.99050   0.35895   0.13440   1.000
    H126    H    0.99050   0.35894   0.63446   1.000
    H127    H    0.99049   0.85894   0.13445   1.000
    H128    H    0.99050   0.85894   0.63446   1.000
    H129    H    0.11826   0.30405   0.13772   1.000
    H130    H    0.11826   0.30404   0.63773   1.000
    H131    H    0.11825   0.80404   0.13773   1.000
    H132    H    0.11827   0.80404   0.63773   1.000
    H133    H    0.61828   0.30405   0.13772   1.000
    H134    H    0.61828   0.30404   0.63773   1.000
    H135    H    0.61827   0.80404   0.13773   1.000
    H136    H    0.61829   0.80404   0.63773   1.000
    H137    H    0.16300   0.30938   0.26321   1.000
    H138    H    0.16301   0.30938   0.76322   1.000
    H139    H    0.16300   0.80938   0.26321   1.000
    H140    H    0.16301   0.80937   0.76322   1.000
    H141    H    0.66302   0.30938   0.26321   1.000
    H142    H    0.66303   0.30938   0.76322   1.000
    H143    H    0.66302   0.80938   0.26321   1.000
    H144    H    0.66303   0.80937   0.76322   1.000
    H145    H    0.15934   0.24085   0.22093   1.000
    H146    H    0.15934   0.24085   0.72093   1.000
    H147    H    0.15933   0.74085   0.22092   1.000
    H148    H    0.15935   0.74084   0.72093   1.000
    H149    H    0.65936   0.24085   0.22093   1.000
    H150    H    0.65936   0.24085   0.72093   1.000
    H151    H    0.65935   0.74085   0.22092   1.000
    H152    H    0.65937   0.74084   0.72090   1.000
    H153    H    0.48710   0.22769   0.17000   1.000
    H154    H    0.48712   0.22770   0.67010   1.000
    H155    H    0.48711   0.72770   0.17000   1.000
    H156    H    0.48711   0.72768   0.67010   1.000
    H157    H    0.98711   0.22769   0.17000   1.000
    H158    H    0.98713   0.22770   0.67010   1.000
    H159    H    0.98712   0.72770   0.17000   1.000
    O160    O    0.93932   0.03955   0.79774   1.000
    O161    O    0.93930   0.53955   0.29774   1.000
    O162    O    0.93931   0.53954   0.79774   1.000
    H163    H    0.36564   0.78791   0.67623   1.000
    H164    H    0.86564   0.28792   0.17622   1.000
    H165    H    0.86565   0.28792   0.67623   1.000
    H166    H    0.86565   0.78792   0.17622   1.000
    H167    H    0.86565   0.78791   0.67623   1.000
    H168    H    0.04418   0.49913   0.40031   1.000
    H169    H    0.04419   0.49912   0.90032   1.000
    H170    H    0.04418   0.99912   0.40031   1.000
    H171    H    0.04419   0.99911   0.90032   1.000
    H172    H    0.54419   0.49912   0.40031   1.000
    H173    H    0.54420   0.49911   0.90030   1.000
    H174    H    0.54419   0.99912   0.40031   1.000
    H175    H    0.54419   0.99911   0.90030   1.000
    H176    H    0.07644   0.42349   0.43930   1.000
    H177    H    0.07645   0.42348   0.93931   1.000
    H178    H    0.07644   0.92348   0.43930   1.000
    H179    H    0.07644   0.92347   0.93931   1.000
    H180    H    0.57645   0.42349   0.43930   1.000
    H181    H    0.57646   0.42348   0.93931   1.000
    H182    H    0.57645   0.92348   0.43930   1.000
    H183    H    0.57645   0.92347   0.93931   1.000
    H184    H    0.08562   0.00212   0.01650   1.000
    H185    H    0.08563   0.00212   0.51658   1.000
    H186    H    0.08562   0.50212   0.01650   1.000
    H187    H    0.08562   0.50212   0.51658   1.000
    H188    H    0.58563   0.00212   0.01650   1.000
    H189    H    0.58564   0.00212   0.51658   1.000
    H190    H    0.58562   0.50212   0.01650   1.000
    H191    H    0.58563   0.50212   0.51658   1.000
    H192    H    0.08366   0.07098   0.46657   1.000
    H193    H    0.08366   0.07097   0.96657   1.000
    H194    H    0.08365   0.57097   0.46657   1.000
    H195    H    0.08366   0.57096   0.96657   1.000
    H196    H    0.58366   0.07097   0.46657   1.000
    H197    H    0.58367   0.07097   0.96657   1.000
    H198    H    0.58366   0.57097   0.46657   1.000
    H199    H    0.58367   0.57096   0.96657   1.000
    H200    H    0.32446   0.40883   0.44161   1.000
    H201    H    0.32446   0.40883   0.94161   1.000
    H202    H    0.32446   0.90883   0.44161   1.000
    H203    H    0.32446   0.90882   0.94161   1.000
    H204    H    0.82446   0.40883   0.44161   1.000
    H205    H    0.82447   0.40883   0.94161   1.000
    H206    H    0.82446   0.90883   0.44161   1.000
    H207    H    0.82447   0.90882   0.94161   1.000
    H208    H    0.22460   0.40719   0.00170   1.000
    H209    H    0.22460   0.40719   0.50172   1.000
    H210    H    0.22460   0.90718   0.00172   1.000
    H211    H    0.22460   0.90718   0.50172   1.000
    H212    H    0.72460   0.40719   0.00170   1.000
    H213    H    0.72461   0.40719   0.50172   1.000
    H214    H    0.72460   0.90718   0.00170   1.000
    H215    H    0.72461   0.90718   0.50172   1.000
    C216    C    0.93713   0.15909   0.83825   1.000
    C217    C    0.93712   0.65909   0.33824   1.000
    C218    C    0.93712   0.65908   0.83825   1.000
    C219    C    0.39273   0.22501   0.25102   1.000
    C220    C    0.39274   0.22500   0.75105   1.000
    C221    C    0.39274   0.72500   0.25104   1.000
    C222    C    0.39274   0.72500   0.75103   1.000
    C223    C    0.89275   0.22501   0.25103   1.000
    C224    C    0.89276   0.22500   0.75105   1.000
    C225    C    0.89275   0.72500   0.25104   1.000
    C226    C    0.89276   0.72500   0.75100   1.000
    C227    C    0.06122   0.23773   0.30100   1.000
    C228    C    0.06121   0.23771   0.80101   1.000
    C229    C    0.06120   0.73771   0.30101   1.000
    C230    C    0.06123   0.73771   0.80101   1.000
    C231    C    0.56124   0.23773   0.30100   1.000
    C232    C    0.56122   0.23771   0.80101   1.000
    C233    C    0.56121   0.73771   0.30101   1.000
    C234    C    0.56124   0.73771   0.80101   1.000
    C235    C    0.38636   0.03915   0.08857   1.000
    C236    C    0.38636   0.03914   0.58857   1.000
    C237    C    0.38636   0.53914   0.08857   1.000
    C238    C    0.38636   0.53913   0.58857   1.000
    C239    C    0.88637   0.03915   0.08857   1.000
    C240    C    0.88637   0.03914   0.58857   1.000
    C241    C    0.88636   0.53914   0.08857   1.000
    C242    C    0.88637   0.53913   0.58857   1.000
    C243    C    0.36104   0.46766   0.01090   1.000
    C244    C    0.36104   0.46766   0.51090   1.000
    C245    C    0.36103   0.96766   0.01090   1.000
    C246    C    0.36104   0.96765   0.51090   1.000
    C247    C    0.86104   0.46766   0.01090   1.000
    C248    C    0.86105   0.46766   0.51090   1.000
    C249    C    0.86104   0.96765   0.01090   1.000
    C250    C    0.86105   0.96765   0.51090   1.000
    C251    C    0.22198   0.06194   0.02531   1.000
    C252    C    0.22199   0.06193   0.52531   1.000
    C253    C    0.22198   0.56193   0.02531   1.000
    C254    C    0.22199   0.56193   0.52531   1.000
    C255    C    0.72199   0.06194   0.02531   1.000
    C256    C    0.72199   0.06194   0.52531   1.000
    C257    C    0.72198   0.56193   0.02531   1.000
    C258    C    0.72199   0.56193   0.52531   1.000
    C259    C    0.06285   0.34089   0.16176   1.000
    C260    C    0.06286   0.34089   0.66176   1.000
    C261    C    0.06285   0.84089   0.16176   1.000
    C262    C    0.06285   0.84088   0.66177   1.000
    C263    C    0.56286   0.34089   0.16176   1.000
    C264    C    0.56287   0.34089   0.66170   1.000
    C265    C    0.56286   0.84089   0.16176   1.000
    C266    C    0.56287   0.84088   0.66177   1.000
    C267    C    0.10723   0.27499   0.24896   1.000
    C268    C    0.10724   0.27498   0.74898   1.000
    C269    C    0.10723   0.77497   0.24898   1.000
    C270    C    0.10724   0.77497   0.74897   1.000
    C271    C    0.60725   0.27499   0.24896   1.000
    C272    C    0.60726   0.27498   0.74898   1.000
    C273    C    0.60725   0.77497   0.24898   1.000
    C274    C    0.60725   0.77497   0.74897   1.000
    C275    C    0.43877   0.26227   0.19900   1.000
    C276    C    0.43876   0.26226   0.69901   1.000
    C277    C    0.43874   0.76225   0.19900   1.000
    C278    C    0.43877   0.76226   0.69900   1.000
    C279    C    0.93878   0.26227   0.19900   1.000
    C280    C    0.93877   0.26226   0.69901   1.000
    C281    C    0.93876   0.76225   0.19900   1.000
    C282    C    0.93879   0.76226   0.69901   1.000
    C283    C    0.11361   0.46083   0.41140   1.000
    C284    C    0.11362   0.46082   0.91144   1.000
    C285    C    0.11361   0.96082   0.41140   1.000
    C286    C    0.11362   0.96082   0.91144   1.000
    C287    C    0.61362   0.46083   0.41140   1.000
    C288    C    0.61363   0.46082   0.91144   1.000
    C289    C    0.61362   0.96082   0.41143   1.000
    C290    C    0.61363   0.96082   0.91144   1.000
    C291    C    0.13893   0.03232   0.48911   1.000
    C292    C    0.13894   0.03231   0.98911   1.000
    C293    C    0.13893   0.53231   0.48911   1.000
    C294    C    0.13893   0.53231   0.98911   1.000
    C295    C    0.63894   0.03232   0.48911   1.000
    C296    C    0.63894   0.03231   0.98911   1.000
    C297    C    0.63894   0.53231   0.48911   1.000
    C298    C    0.63894   0.53231   0.98911   1.000
    C299    C    0.27799   0.43804   0.47400   1.000
    C300    C    0.27800   0.43804   0.97470   1.000
    C301    C    0.27799   0.93803   0.47469   1.000
    C302    C    0.27800   0.93803   0.97470   1.000
    C303    C    0.77800   0.43804   0.47400   1.000
    C304    C    0.77800   0.43804   0.97470   1.000
    C305    C    0.77799   0.93803   0.47400   1.000
    C306    C    0.77800   0.93803   0.97470   1.000
    N307    N    0.48594   0.18890   0.28493   1.000
    N308    N    0.48597   0.18887   0.78493   1.000
    N309    N    0.48597   0.68887   0.28492   1.000
    N310    N    0.48595   0.68889   0.78490   1.000
    N311    N    0.98596   0.18890   0.28493   1.000
    N312    N    0.98599   0.18888   0.78493   1.000
    N313    N    0.98598   0.68887   0.28492   1.000
    N314    N    0.98597   0.68889   0.78494   1.000
    N315    N    0.30044   0.00997   0.05516   1.000
    N316    N    0.30045   0.00997   0.55516   1.000
    N317    N    0.30044   0.50996   0.05516   1.000
    N318    N    0.30044   0.50996   0.55516   1.000
    N319    N    0.80045   0.00997   0.05516   1.000
    N320    N    0.80045   0.00997   0.55516   1.000
    N321    N    0.80044   0.50996   0.05516   1.000
    N322    N    0.80044   0.50996   0.55516   1.000
    N323    N    0.01400   0.31111   0.21508   1.000
    N324    N    0.01402   0.31109   0.71508   1.000
    N325    N    0.01402   0.81108   0.21507   1.000
    N326    N    0.01401   0.81110   0.71509   1.000
    N327    N    0.51401   0.31111   0.21509   1.000
    N328    N    0.51404   0.31109   0.71508   1.000
    N329    N    0.51404   0.81108   0.21507   1.000
    N330    N    0.51402   0.81110   0.71509   1.000
    N331    N    0.19953   0.49000   0.44485   1.000
    N332    N    0.19953   0.49000   0.94485   1.000
    N333    N    0.19952   0.99000   0.44485   1.000
    N334    N    0.19953   0.98999   0.94485   1.000
    N335    N    0.69953   0.49000   0.44485   1.000
    N336    N    0.69954   0.49000   0.94485   1.000
    N337    N    0.69953   0.99000   0.44485   1.000
    N338    N    0.69953   0.98999   0.94485   1.000
    O339    O    0.24546   0.11364   0.29806   1.000
    O340    O    0.24547   0.11364   0.79807   1.000
    O341    O    0.24547   0.61364   0.29806   1.000
    O342    O    0.24547   0.61363   0.79807   1.000
    O343    O    0.74548   0.11364   0.29806   1.000
    O344    O    0.74549   0.11364   0.79806   1.000
    O345    O    0.74548   0.61364   0.29806   1.000
    O346    O    0.74549   0.61363   0.79806   1.000
    O347    O    0.43929   0.03955   0.29774   1.000
    O348    O    0.43930   0.03955   0.79774   1.000
    O349    O    0.43929   0.53955   0.29774   1.000
    O350    O    0.43930   0.53954   0.79774   1.000
    O351    O    0.93931   0.03955   0.29774   1.000
    O352    O    0.44935   0.10254   0.17224   1.000
    O353    O    0.44936   0.10253   0.67225   1.000
    O354    O    0.44935   0.60253   0.17224   1.000
    O355    O    0.44936   0.60252   0.67225   1.000
    O356    O    0.94937   0.10253   0.17224   1.000
    O357    O    0.94938   0.10253   0.67225   1.000
    O358    O    0.94937   0.60253   0.17224   1.000
    O359    O    0.94937   0.60252   0.67220   1.000
    O360    O    0.22979   0.12208   0.15227   1.000
    O361    O    0.22980   0.12207   0.65227   1.000
    O362    O    0.22979   0.62207   0.15227   1.000
    O363    O    0.22980   0.62206   0.65227   1.000
    O364    O    0.72981   0.12208   0.15227   1.000
    O365    O    0.72982   0.12207   0.65227   1.000
    O366    O    0.72981   0.62207   0.15227   1.000
    O367    O    0.72982   0.62206   0.65227   1.000
    O368    O    0.30651   0.01685   0.19736   1.000
    O369    O    0.30652   0.01684   0.69737   1.000
    O370    O    0.30651   0.51684   0.19736   1.000
    O371    O    0.30651   0.51684   0.69737   1.000
    O372    O    0.80653   0.01685   0.19736   1.000
    O373    O    0.80654   0.01684   0.69737   1.000
    O374    O    0.80653   0.51684   0.19736   1.000
    O375    O    0.80653   0.51684   0.69737   1.000
    O376    O    0.25452   0.38637   0.20187   1.000
    O377    O    0.25453   0.38637   0.70188   1.000
    O378    O    0.25452   0.88637   0.20187   1.000
    O379    O    0.25452   0.88636   0.70188   1.000
    O380    O    0.75453   0.38637   0.20187   1.000
    O381    O    0.75455   0.38637   0.70187   1.000
    O382    O    0.75454   0.88637   0.20187   1.000
    O383    O    0.75454   0.88636   0.70187   1.000
    O384    O    0.06066   0.46043   0.20228   1.000
    O385    O    0.06067   0.46043   0.70229   1.000
    O386    O    0.06066   0.96043   0.20228   1.000
    O387    O    0.06066   0.96042   0.70220   1.000
    O388    O    0.56068   0.46043   0.20220   1.000
    O389    O    0.56068   0.46043   0.70229   1.000
    O390    O    0.56067   0.96043   0.20229   1.000
    O391    O    0.56068   0.96042   0.70229   1.000
    O392    O    0.05063   0.39745   0.32775   1.000
    O393    O    0.05063   0.39745   0.82775   1.000
    O394    O    0.05062   0.89744   0.32775   1.000
    O395    O    0.05063   0.89744   0.82775   1.000
    O396    O    0.55065   0.39745   0.32775   1.000
    O397    O    0.55065   0.39744   0.82775   1.000
    O398    O    0.55064   0.89744   0.32775   1.000
    O399    O    0.55065   0.89744   0.82775   1.000
    O400    O    0.27019   0.37792   0.34772   1.000
    O401    O    0.27020   0.37792   0.84772   1.000
    O402    O    0.27019   0.87791   0.34772   1.000
    O403    O    0.27020   0.87791   0.84772   1.000
    O404    O    0.77021   0.37792   0.34772   1.000
    O405    O    0.77022   0.37792   0.84772   1.000
    O406    O    0.77021   0.87791   0.34772   1.000
    O407    O    0.77021   0.87791   0.84772   1.000
    O408    O    0.19344   0.48315   0.30264   1.000
    O409    O    0.19345   0.48314   0.80264   1.000
    O410    O    0.19344   0.98314   0.30260   1.000
    O411    O    0.19344   0.98314   0.80264   1.000
    O412    O    0.69346   0.48315   0.30260   1.000
    O413    O    0.69346   0.48314   0.80264   1.000
    O414    O    0.69346   0.98314   0.30260   1.000
    O415    O    0.69346   0.98314   0.80264   1.000
loop_
    _geom_bond_atom_site_label_1
    _geom_bond_atom_site_label_2
    _geom_bond_distance
    _geom_bond_site_symmetry_2
    _ccdc_geom_bond_type
    H214   C306      1.09978  1_554   S
    H212   C304      1.09979  1_554   S
    H208   C300      1.09978  1_554   S
    H210   C302      1.10003  1_554   S
    C249   H95       1.09715      .   S
    C249   N319      1.49982  1_565   S
    C249   C306      1.51657  1_554   S
    C249   H83       1.09674  1_554   S
    C243   H89       1.09715      .   S
    C243   N317      1.49971      .   S
    C243   C300      1.51656  1_554   S
    C243   H77       1.09675  1_554   S
    C245   H91       1.09717      .   S
    C245   N315      1.49979  1_565   S
    C245   C302      1.51657  1_554   S
    C245   H79       1.09673  1_554   S
    C247   H93       1.09759      .   S
    C247   N321      1.49972      .   S
    C247   C304      1.51656  1_554   S
    C247   H81       1.09675  1_554   S
    H190   C298      1.09568  1_554   S
    H188   C296      1.09569  1_554   S
    H186   C294      1.09568  1_554   S
    H184   C292      1.09569  1_554   S
    C257   N321      1.49692      .   S
    C257   H103      1.09854      .   S
    C257   C298      1.51659  1_554   S
    C257   H112      1.10015  1_554   S
    C255   N319      1.49690      .   S
    C255   H101      1.09856      .   S
    C255   C296      1.51661  1_554   S
    C255   H110      1.10013  1_554   S
    C253   N317      1.49693      .   S
    C253   H99       1.09854      .   S
    C253   C294      1.51660  1_554   S
    C253   H108      1.10014  1_554   S
    C251   N315      1.49691      .   S
    C251   H97       1.09854      .   S
    C251   C292      1.51661  1_554   S
    C251   H106      1.10014  1_554   S
    N315   H2        1.15911  1_545   S
    N315   C235      1.49768      .   S
    N321   H4        1.15894      .   S
    N321   C241      1.49767      .   S
    N317   H0        1.15891      .   S
    N317   C237      1.49767      .   S
    N319   H6        1.15913  1_545   S
    N319   C239      1.49769      .   S
    H70    C237      1.09948      .   S
    H72    C239      1.09948      .   S
    H68    C235      1.09947      .   S
    H74    C241      1.09948      .   S
    C241   H66       1.09985      .   S
    C239   H64       1.09984      .   S
    C237   H62       1.09983      .   S
    C235   H60       1.09985      .   S
    H125   C259      1.10203  1_655   S
    H121   C263      1.10238      .   S
    H127   C261      1.10140  1_655   S
    H123   C265      1.10175      .   S
    H129   C259      1.10874      .   S
    H133   C263      1.10872      .   S
    H131   C261      1.10873      .   S
    H135   C265      1.10869      .   S
    C263   N327      1.48232      .   S
    C259   N323      1.48217      .   S
    C261   N325      1.48214      .   S
    C265   N329      1.48211      .   S
    H155   C277      1.10799      .   S
    H157   C279      1.10808      .   S
    H159   C281      1.10798      .   S
    H153   C275      1.10813      .   S
    H55    C277      1.09741      .   S
    H53    C275      1.09751      .   S
    H166   C281      1.09743      .   S
    H164   C279      1.09752      .   S
    C281   N325      1.48737  1_655   S
    C281   C225      1.51698      .   S
    C275   N327      1.48762      .   S
    C275   C219      1.51678      .   S
    C277   N329      1.48767      .   S
    C277   C221      1.51697      .   S
    C279   N323      1.48728  1_655   S
    C279   C223      1.51693      .   S
    N325   C269      1.48443      .   S
    N329   C273      1.48444      .   S
    N323   C267      1.48434      .   S
    N327   C271      1.48424      .   S
    H151   C273      1.10783      .   S
    H147   C269      1.10784      .   S
    H149   C271      1.10773      .   S
    H145   C267      1.10771      .   S
    H30    C225      1.09312      .   S
    H28    C223      1.09318      .   S
    H26    C221      1.09313      .   S
    H24    C219      1.09313      .   S
    C267   H137      1.09313      .   S
    C267   C227      1.51699      .   S
    C271   H141      1.09313      .   S
    C271   C231      1.51699      .   S
    C269   H139      1.09310      .   S
    C269   C229      1.51695      .   S
    C273   H143      1.09310      .   S
    C273   C233      1.51697      .   S
    C219   H32       1.10782      .   S
    C219   N307      1.48439      .   S
    C223   H36       1.10771      .   S
    C223   N311      1.48429      .   S
    C221   H34       1.10774      .   S
    C221   N309      1.48433      .   S
    C225   H38       1.10773      .   S
    C225   N313      1.48432      .   S
    N309   C233      1.48764      .   S
    N309   C86       1.48218      .   S
    N313   C229      1.48738  1_655   S
    N313   C217      1.48221      .   S
    N311   C227      1.48739  1_655   S
    N311   C88       1.48144      .   S
    N307   C231      1.48768      .   S
    N307   C84       1.48217      .   S
    C227   H48       1.09745      .   S
    C227   H40       1.10664      .   S
    C231   H56       1.09744      .   S
    C231   H44       1.10665      .   S
    C229   H50       1.09742      .   S
    C229   H42       1.10661      .   S
    C233   H58       1.09742      .   S
    C233   H46       1.10663      .   S
    C88    H20       1.10931      .   S
    C88    H8        1.10194  1_655   S
    C84    H16       1.10881      .   S
    C84    H12       1.10174      .   S
    C86    H18       1.10870      .   S
    C86    H14       1.10167      .   S
    C217   H22       1.10871      .   S
    C217   H10       1.10134  1_655   S
    H174   C289      1.09982      .   S
    H172   C287      1.09966      .   S
    H170   C285      1.09967      .   S
    H168   C283      1.09967      .   S
    C287   H180      1.09980      .   S
    C287   N335      1.49810      .   S
    C283   H176      1.09980      .   S
    C283   N331      1.49811      .   S
    C285   H178      1.09979      .   S
    C285   N333      1.49813      .   S
    C289   H182      1.09942      .   S
    C289   N337      1.49772      .   S
    H117   N337      1.15980  1_545   S
    H113   N333      1.15981  1_545   S
    H119   N335      1.15901      .   S
    H115   N331      1.15902      .   S
    H202   C301      1.09852      .   S
    H206   C305      1.08705      .   S
    H204   C303      1.08703      .   S
    H200   C299      1.08702      .   S
    N337   C305      1.48959      .   S
    N337   C295      1.49982  1_565   S
    N335   C303      1.48959      .   S
    N335   C297      1.49973      .   S
    N333   C301      1.49682      .   S
    N333   C291      1.49982  1_565   S
    N331   C299      1.48961      .   S
    N331   C293      1.49973      .   S
    H194   C293      1.09759      .   S
    H196   C295      1.09759      .   S
    H198   C297      1.09758      .   S
    H192   C291      1.09759      .   S
    C303   H213      1.10861      .   S
    C303   C248      1.52659      .   S
    C305   H215      1.10860      .   S
    C305   C250      1.52661      .   S
    C299   H209      1.10862      .   S
    C299   C244      1.52659      .   S
    C301   H211      1.10014      .   S
    C301   C246      1.51673      .   S
    H76    C244      1.09671      .   S
    H78    C246      1.09672      .   S
    H82    C250      1.09673      .   S
    H80    C248      1.09673      .   S
    C297   H191      1.09667      .   S
    C297   C258      1.51662      .   S
    C295   H189      1.09666      .   S
    C295   C256      1.51663      .   S
    C291   H185      1.09666      .   S
    C291   C252      1.51663      .   S
    C293   H187      1.09668      .   S
    C293   C254      1.51663      .   S
    H109   C256      1.10111      .   S
    H105   C252      1.10112      .   S
    H111   C258      1.10014      .   S
    H107   C254      1.10014      .   S
    C250   H96       1.09717      .   S
    C250   N320      1.49982  1_565   S
    C248   H94       1.09718      .   S
    C248   N322      1.49970      .   S
    C246   H92       1.09716      .   S
    C246   N316      1.49982  1_565   S
    C244   H90       1.09718      .   S
    C244   N318      1.49968      .   S
    C252   N316      1.49691      .   S
    C252   H98       1.09870      .   S
    C254   N318      1.49689      .   S
    C254   H100      1.09855      .   S
    C258   N322      1.49689      .   S
    C258   H104      1.09202      .   S
    C256   N320      1.49693      .   S
    C256   H102      1.09871      .   S
    N320   H7        1.15915  1_545   S
    N320   C240      1.49766      .   S
    N318   H1        1.15828      .   S
    N318   C238      1.49768      .   S
    N322   H5        1.15892      .   S
    N322   C242      1.49769      .   S
    N316   H3        1.15914  1_545   S
    N316   C236      1.49765      .   S
    H75    C242      1.10823      .   S
    H73    C240      1.10824      .   S
    H71    C238      1.09935      .   S
    H69    C236      1.09936      .   S
    C242   H67       1.09984      .   S
    C240   H65       1.09984      .   S
    C236   H61       1.09984      .   S
    C238   H63       1.09984      .   S
    H124   C266      1.10169      .   S
    H126   C260      1.10126  1_655   S
    H128   C262      1.10135  1_655   S
    H122   C264      1.10076      .   S
    H134   C264      1.10797      .   S
    H130   C260      1.10872      .   S
    H132   C262      1.10875      .   S
    H136   C266      1.10873      .   S
    C264   N328      1.48341      .   S
    C260   N324      1.48230      .   S
    C266   N330      1.48214      .   S
    C262   N326      1.48218      .   S
    H156   C278      1.10663      .   S
    H154   C276      1.10668      .   S
    H158   C280      1.10667      .   S
    H52    C282      1.10676      .   S
    H163   C278      1.09737      .   S
    H165   C280      1.09744      .   S
    H54    C276      1.09742      .   S
    H167   C282      1.09749      .   S
    C278   N330      1.48766      .   S
    C278   C222      1.51693      .   S
    C280   N324      1.48736  1_655   S
    C280   C224      1.51700      .   S
    C282   N326      1.48729  1_655   S
    C282   C226      1.51621      .   S
    C276   N328      1.48766      .   S
    C276   C220      1.51700      .   S
    N328   C272      1.48433      .   S
    N324   C268      1.48434      .   S
    N330   C274      1.48430      .   S
    N326   C270      1.48430      .   S
    H152   C274      1.10825      .   S
    H146   C268      1.10774      .   S
    H148   C270      1.10783      .   S
    H150   C272      1.10772      .   S
    H31    C226      1.09282      .   S
    H29    C224      1.09314      .   S
    H27    C222      1.09310      .   S
    H25    C220      1.09315      .   S
    C270   H140      1.09315      .   S
    C270   C230      1.51701      .   S
    C274   H144      1.09316      .   S
    C274   C234      1.51703      .   S
    C272   H142      1.09320      .   S
    C272   C232      1.51696      .   S
    C268   H138      1.09317      .   S
    C268   C228      1.51693      .   S
    C226   H39       1.10830      .   S
    C226   N314      1.48483      .   S
    C222   H35       1.10788      .   S
    C222   N310      1.48396      .   S
    C220   H33       1.10771      .   S
    C220   N308      1.48430      .   S
    C224   H37       1.10769      .   S
    C224   N312      1.48429      .   S
    N310   C234      1.48793      .   S
    N310   C87       1.48290      .   S
    N312   C228      1.48731  1_655   S
    N312   C216      1.48224      .   S
    N308   C232      1.48757      .   S
    N308   C85       1.48220      .   S
    N314   C230      1.48737  1_655   S
    N314   C218      1.48218      .   S
    C228   H49       1.09742      .   S
    C228   H41       1.10673      .   S
    C230   H51       1.09745      .   S
    C230   H43       1.10666      .   S
    C232   H57       1.09649      .   S
    C232   H45       1.10648      .   S
    C234   H59       1.09746      .   S
    C234   H47       1.10668      .   S
    C87    H19       1.10769      .   S
    C87    H15       1.10173      .   S
    C85    H17       1.10870      .   S
    C85    H13       1.10086      .   S
    C216   H21       1.10872      .   S
    C216   H9        1.10051  1_655   S
    C218   H23       1.10870      .   S
    C218   H11       1.10139  1_655   S
    H173   C288      1.09992      .   S
    H175   C290      1.09993      .   S
    H171   C286      1.09983      .   S
    H169   C284      1.09983      .   S
    C284   H177      1.09941      .   S
    C284   N332      1.49761      .   S
    C286   H179      1.09942      .   S
    C286   N334      1.49757      .   S
    C288   H181      1.09942      .   S
    C288   N336      1.49758      .   S
    C290   H183      1.09942      .   S
    C290   N338      1.49757      .   S
    H114   N334      1.15921  1_545   S
    H116   N332      1.15898      .   S
    H118   N338      1.15920  1_545   S
    H120   N336      1.15898      .   S
    H203   C302      1.09869      .   S
    H201   C300      1.09870      .   S
    H207   C306      1.09870      .   S
    H205   C304      1.09870      .   S
    N332   C300      1.49691      .   S
    N332   C294      1.49971      .   S
    N334   C302      1.49695      .   S
    N334   C292      1.49985  1_565   S
    N336   C304      1.49689      .   S
    N336   C298      1.49971      .   S
    N338   C306      1.49694      .   S
    N338   C296      1.49984  1_565   S
    H199   C298      1.09757      .   S
    H197   C296      1.09757      .   S
    H195   C294      1.09757      .   S
    H193   C292      1.09756      .   S
