# CIF file generated by openbabel 2.4.90, see http://openbabel.sf.net
data_I
_chemical_name_common ''
_cell_length_a 11.706
_cell_length_b 20.742
_cell_length_c 23.396
_cell_angle_alpha 86.75
_cell_angle_beta 87.624
_cell_angle_gamma 83.614
_space_group_name_H-M_alt 'P 1'
_space_group_name_Hall 'P 1'
loop_
    _symmetry_equiv_pos_as_xyz
    x,y,z
loop_
    _atom_site_label
    _atom_site_type_symbol
    _atom_site_fract_x
    _atom_site_fract_y
    _atom_site_fract_z
    _atom_site_occupancy
    P0      P    0.35467   0.08968   0.33058   1.000
    P1      P    0.35468   0.08968   0.83059   1.000
    P2      P    0.35467   0.58967   0.33058   1.000
    P3      P    0.35467   0.58967   0.83059   1.000
    P4      P    0.85468   0.08968   0.33058   1.000
    P5      P    0.85469   0.08968   0.83059   1.000
    P6      P    0.85468   0.58968   0.33058   1.000
    P7      P    0.85469   0.58967   0.83059   1.000
    P8      P    0.33965   0.07476   0.15734   1.000
    P9      P    0.33966   0.07475   0.65734   1.000
    P10     P    0.33965   0.57475   0.15734   1.000
    P11     P    0.33965   0.57475   0.65734   1.000
    P12     P    0.83967   0.07476   0.15734   1.000
    P13     P    0.83967   0.07475   0.65734   1.000
    P14     P    0.83966   0.57475   0.15734   1.000
    P15     P    0.83967   0.57475   0.65734   1.000
    P16     P    0.14524   0.41033   0.16940   1.000
    P17     P    0.14526   0.41032   0.66941   1.000
    P18     P    0.14525   0.91032   0.16940   1.000
    P19     P    0.14525   0.91031   0.66941   1.000
    P20     P    0.64526   0.41033   0.16940   1.000
    P21     P    0.64527   0.41032   0.66940   1.000
    P22     P    0.64526   0.91033   0.16940   1.000
    P23     P    0.64526   0.91032   0.66940   1.000
    P24     P    0.16032   0.42523   0.34266   1.000
    P25     P    0.16033   0.42523   0.84266   1.000
    P26     P    0.16032   0.92523   0.34266   1.000
    P27     P    0.16032   0.92522   0.84266   1.000
    P28     P    0.66034   0.42523   0.34266   1.000
    P29     P    0.66034   0.42523   0.84266   1.000
    P30     P    0.66034   0.92523   0.34266   1.000
    P31     P    0.66034   0.92522   0.84266   1.000
    O32     O    0.33245   0.06450   0.39307   1.000
    O33     O    0.33246   0.06449   0.89300   1.000
    O34     O    0.33244   0.56449   0.39307   1.000
    O35     O    0.33245   0.56448   0.89308   1.000
    O36     O    0.83244   0.06450   0.39307   1.000
    O37     O    0.83245   0.06449   0.89307   1.000
    O38     O    0.83244   0.56450   0.39307   1.000
    O39     O    0.83245   0.56449   0.89307   1.000
    O40     O    0.16729   0.43555   0.10691   1.000
    O41     O    0.16730   0.43555   0.60691   1.000
    O42     O    0.16729   0.93555   0.10691   1.000
    O43     O    0.16730   0.93554   0.60690   1.000
    O44     O    0.66729   0.43556   0.10691   1.000
    O45     O    0.66729   0.43555   0.60691   1.000
    O46     O    0.66728   0.93555   0.10691   1.000
    O47     O    0.66730   0.93554   0.60691   1.000
loop_
    _geom_bond_atom_site_label_1
    _geom_bond_atom_site_label_2
    _geom_bond_distance
    _geom_bond_site_symmetry_2
    _ccdc_geom_bond_type
    O44    P20       1.54592      .   S
    O42    P18       1.54590      .   S
    O40    P16       1.54594      .   S
    O46    P22       1.54589      .   S
    P6     O38       1.54602      .   S
    P4     O36       1.54598      .   S
    P0     O32       1.54597      .   S
    P2     O34       1.54601      .   S
    O43    P19       1.54635      .   S
    O41    P17       1.54611      .   S
    O45    P21       1.54589      .   S
    O47    P23       1.54591      .   S
    P5     O37       1.54580      .   S
    P7     O39       1.54578      .   S
    P3     O35       1.54599      .   S
    P1     O33       1.54429      .   S
