# CIF file generated by openbabel 2.4.90, see http://openbabel.sf.net
data_I
_chemical_name_common ''
_cell_length_a 11.706
_cell_length_b 20.742
_cell_length_c 23.396
_cell_angle_alpha 86.75
_cell_angle_beta 87.624
_cell_angle_gamma 83.614
_space_group_name_H-M_alt 'P 1'
_space_group_name_Hall 'P 1'
loop_
    _symmetry_equiv_pos_as_xyz
    x,y,z
loop_
    _atom_site_label
    _atom_site_type_symbol
    _atom_site_fract_x
    _atom_site_fract_y
    _atom_site_fract_z
    _atom_site_occupancy
    Mc0     Mc   0.25452   0.38637   0.20187   1.000
    Mc1     Mc   0.93931   0.03955   0.29774   1.000
    Mc2     Mc   0.74548   0.11364   0.29806   1.000
    Mc3     Mc   0.06066   0.46043   0.20228   1.000
    Ts4     Ts   0.99999   0.24999   0.24999   1.000
    Mc5     Mc   0.44935   0.10254   0.17224   1.000
    Mc6     Mc   0.19344   0.98314   0.80264   1.000
    Mc7     Mc   0.05063   0.89744   0.82775   1.000
    Mc8     Mc   0.22979   0.12208   0.15227   1.000
    Mc9     Mc   0.30651   0.01685   0.19736   1.000
    Mc10    Mc   0.27020   0.87791   0.84772   1.000
    Ts11    Ts   0.24999   0.99998   1.00000   1.000
    Mc12    Mc   0.05063   0.39745   0.82775   1.000
    Mc13    Mc   0.27020   0.37792   0.84772   1.000
    Mc14    Mc   0.22979   0.62207   0.15227   1.000
    Mc15    Mc   0.30651   0.51684   0.19736   1.000
    Mc16    Mc   0.19345   0.48314   0.80264   1.000
    Mc17    Mc   0.44935   0.60253   0.17224   1.000
    Ts18    Ts   0.24999   0.49998   1.00000   1.000
    Mc19    Mc   0.55065   0.39745   0.32775   1.000
    Mc20    Mc   0.94937   0.60252   0.67220   1.000
    Mc21    Mc   0.72982   0.62206   0.65227   1.000
    Mc22    Mc   0.80653   0.51684   0.69737   1.000
    Mc23    Mc   0.69346   0.48315   0.30260   1.000
    Mc24    Mc   0.77021   0.37792   0.34772   1.000
    Ts25    Ts   0.74999   0.49998   0.49992   1.000
    Mc26    Mc   0.69346   0.48314   0.80264   1.000
    Mc27    Mc   0.72981   0.62207   0.15227   1.000
    Mc28    Mc   0.80653   0.51684   0.19736   1.000
    Mc29    Mc   0.94937   0.60253   0.17224   1.000
    Mc30    Mc   0.55065   0.39744   0.82775   1.000
    Mc31    Mc   0.77022   0.37792   0.84772   1.000
    Ts32    Ts   0.74999   0.49998   1.00000   1.000
    Mc33    Mc   0.69346   0.98314   0.30260   1.000
    Mc34    Mc   0.55064   0.89744   0.32775   1.000
    Mc35    Mc   0.80654   0.01684   0.69737   1.000
    Mc36    Mc   0.72982   0.12207   0.65227   1.000
    Mc37    Mc   0.94938   0.10253   0.67225   1.000
    Mc38    Mc   0.77021   0.87791   0.34772   1.000
    Ts39    Ts   0.74999   0.99998   0.49993   1.000
    Mc40    Mc   0.44936   0.10253   0.67225   1.000
    Mc41    Mc   0.05062   0.89744   0.32775   1.000
    Mc42    Mc   0.27019   0.87791   0.34772   1.000
    Mc43    Mc   0.19344   0.98314   0.30260   1.000
    Mc44    Mc   0.30652   0.01684   0.69737   1.000
    Mc45    Mc   0.22980   0.12207   0.65227   1.000
    Ts46    Ts   0.24999   0.99998   0.49999   1.000
    Mc47    Mc   0.24547   0.61364   0.29806   1.000
    Mc48    Mc   0.43929   0.53955   0.29774   1.000
    Mc49    Mc   0.56067   0.96043   0.20229   1.000
    Mc50    Mc   0.75454   0.88637   0.20187   1.000
    Ts51    Ts   0.49999   0.74999   0.25000   1.000
    Mc52    Mc   0.06066   0.96043   0.20228   1.000
    Mc53    Mc   0.25452   0.88637   0.20187   1.000
    Mc54    Mc   0.74548   0.61364   0.29806   1.000
    Mc55    Mc   0.93930   0.53955   0.29774   1.000
    Ts56    Ts   0.99999   0.74999   0.25000   1.000
    Mc57    Mc   0.74549   0.11364   0.79806   1.000
    Mc58    Mc   0.25453   0.38637   0.70188   1.000
    Mc59    Mc   0.93932   0.03955   0.79774   1.000
    Mc60    Mc   0.06067   0.46043   0.70229   1.000
    Ts61    Ts   1.00000   0.24999   0.75001   1.000
    Mc62    Mc   0.69346   0.98314   0.80264   1.000
    Mc63    Mc   0.94937   0.10253   0.17224   1.000
    Mc64    Mc   0.80653   0.01685   0.19736   1.000
    Mc65    Mc   0.72981   0.12208   0.15227   1.000
    Mc66    Mc   0.55065   0.89744   0.82775   1.000
    Mc67    Mc   0.77021   0.87791   0.84772   1.000
    Ts68    Ts   0.74999   0.99998   1.00000   1.000
    Mc69    Mc   0.43929   0.03955   0.29774   1.000
    Mc70    Mc   0.24546   0.11364   0.29806   1.000
    Mc71    Mc   0.56068   0.46043   0.20220   1.000
    Mc72    Mc   0.75453   0.38637   0.20187   1.000
    Ts73    Ts   0.49999   0.24999   0.24999   1.000
    Mc74    Mc   0.27019   0.37792   0.34772   1.000
    Mc75    Mc   0.22980   0.62206   0.65227   1.000
    Mc76    Mc   0.30651   0.51684   0.69737   1.000
    Mc77    Mc   0.19344   0.48315   0.30264   1.000
    Mc78    Mc   0.44935   0.60252   0.67225   1.000
    Mc79    Mc   0.05063   0.39745   0.32775   1.000
    Ts80    Ts   0.24999   0.49998   0.49997   1.000
    Mc81    Mc   0.74549   0.61363   0.79806   1.000
    Mc82    Mc   0.06066   0.96042   0.70220   1.000
    Mc83    Mc   0.25452   0.88636   0.70188   1.000
    Mc84    Mc   0.93931   0.53954   0.79774   1.000
    Ts85    Ts   1.00000   0.74998   0.75001   1.000
    Mc86    Mc   0.56068   0.46043   0.70229   1.000
    Mc87    Mc   0.24547   0.11364   0.79807   1.000
    Mc88    Mc   0.75455   0.38637   0.70187   1.000
    Mc89    Mc   0.43930   0.03955   0.79774   1.000
    Ts90    Ts   0.50000   0.24999   0.75000   1.000
    Mc91    Mc   0.24547   0.61363   0.79807   1.000
    Mc92    Mc   0.56068   0.96042   0.70229   1.000
    Mc93    Mc   0.75454   0.88636   0.70187   1.000
    Mc94    Mc   0.43930   0.53954   0.79774   1.000
    Ts95    Ts   0.50000   0.74998   0.75000   1.000
