# CIF file generated by openbabel 2.4.90, see http://openbabel.sf.net
data_I
_chemical_name_common ''
_cell_length_a 11.706
_cell_length_b 20.742
_cell_length_c 23.396
_cell_angle_alpha 86.75
_cell_angle_beta 87.624
_cell_angle_gamma 83.614
_space_group_name_H-M_alt 'P 1'
_space_group_name_Hall 'P 1'
loop_
    _symmetry_equiv_pos_as_xyz
    x,y,z
loop_
    _atom_site_label
    _atom_site_type_symbol
    _atom_site_fract_x
    _atom_site_fract_y
    _atom_site_fract_z
    _atom_site_occupancy
    N0      N    0.15627   0.42294   0.13816   1.000
    N1      N    0.84356   0.07709   0.36183   1.000
    O2      O    0.93486   0.17537   0.29905   1.000
    N3      N    0.16032   0.92522   0.84266   1.000
    N4      N    0.33965   0.07476   0.15734   1.000
    O5      O    0.30066   0.03292   0.07007   1.000
    N6      N    0.16033   0.42523   0.84266   1.000
    N7      N    0.33965   0.57475   0.15734   1.000
    O8      O    0.19932   0.46706   0.92993   1.000
    N9      N    0.83967   0.57475   0.65734   1.000
    N10     N    0.66034   0.42523   0.34266   1.000
    O11     O    0.69933   0.46706   0.42988   1.000
    N12     N    0.83966   0.57475   0.15734   1.000
    N13     N    0.66034   0.42523   0.84266   1.000
    O14     O    0.80067   0.53292   0.07007   1.000
    N15     N    0.66034   0.92523   0.34266   1.000
    N16     N    0.83967   0.07475   0.65734   1.000
    O17     O    0.69933   0.96705   0.42989   1.000
    N18     N    0.33966   0.07475   0.65734   1.000
    N19     N    0.16032   0.92523   0.34266   1.000
    O20     O    0.30066   0.03292   0.57007   1.000
    N21     N    0.65627   0.92294   0.13816   1.000
    N22     N    0.34356   0.57708   0.36183   1.000
    O23     O    0.56508   0.82463   0.20093   1.000
    N24     N    0.84356   0.57709   0.36183   1.000
    N25     N    0.15627   0.92294   0.13816   1.000
    O26     O    0.93486   0.67536   0.29906   1.000
    N27     N    0.84357   0.07709   0.86183   1.000
    N28     N    0.15628   0.42294   0.63816   1.000
    O29     O    0.93487   0.17536   0.79907   1.000
    N30     N    0.66034   0.92522   0.84266   1.000
    N31     N    0.83967   0.07476   0.15734   1.000
    O32     O    0.80067   0.03292   0.07007   1.000
    N33     N    0.65627   0.42294   0.13816   1.000
    N34     N    0.34356   0.07709   0.36183   1.000
    O35     O    0.43486   0.17536   0.29906   1.000
    N36     N    0.16032   0.42523   0.34266   1.000
    N37     N    0.33965   0.57475   0.65734   1.000
    O38     O    0.19932   0.46706   0.42991   1.000
    N39     N    0.84357   0.57708   0.86183   1.000
    N40     N    0.15628   0.92293   0.63816   1.000
    O41     O    0.93487   0.67535   0.79907   1.000
    N42     N    0.34357   0.07708   0.86180   1.000
    N43     N    0.65628   0.42294   0.63816   1.000
    O44     O    0.43486   0.17536   0.79905   1.000
    N45     N    0.34356   0.57707   0.86184   1.000
    N46     N    0.65628   0.92293   0.63816   1.000
    O47     O    0.43486   0.67535   0.79906   1.000
    Zr48    Zr   0.11064   0.57129   0.23552   1.000
    O49     O    0.14169   0.53823   0.26069   1.000
    O50     O    0.16120   0.58717   0.25897   1.000
    O51     O    0.04639   0.55938   0.25885   1.000
    O52     O    0.06739   0.63066   0.24531   1.000
    O53     O    0.05016   0.58300   0.21179   1.000
    O54     O    0.09190   0.52972   0.22306   1.000
    Zr55    Zr   0.38931   0.42870   0.26448   1.000
    O56     O    0.35826   0.46175   0.23931   1.000
    O57     O    0.40805   0.47027   0.27695   1.000
    O58     O    0.33876   0.41283   0.24100   1.000
    O59     O    0.44981   0.41698   0.28821   1.000
    Zr60    Zr   0.38931   0.42870   0.76448   1.000
    O61     O    0.44982   0.41698   0.78821   1.000
    O62     O    0.35826   0.46175   0.73931   1.000
    O63     O    0.40806   0.47027   0.77695   1.000
    O64     O    0.33877   0.41283   0.74101   1.000
    Zr65    Zr   0.61067   0.07129   0.23551   1.000
    O66     O    0.64171   0.03823   0.26067   1.000
    O67     O    0.59192   0.02971   0.22305   1.000
    O68     O    0.56741   0.13067   0.24531   1.000
    O69     O    0.66122   0.08717   0.25897   1.000
    O70     O    0.55018   0.08300   0.21178   1.000
    O71     O    0.54640   0.05939   0.25885   1.000
    Zr72    Zr   0.88934   0.92869   0.76448   1.000
    O73     O    0.90808   0.97026   0.77695   1.000
    O74     O    0.83879   0.91282   0.74100   1.000
    O75     O    0.94982   0.91697   0.78821   1.000
    O76     O    0.85829   0.96175   0.73931   1.000
    Zr77    Zr   0.88933   0.42870   0.76448   1.000
    O78     O    0.94982   0.41698   0.78821   1.000
    O79     O    0.90808   0.47027   0.77695   1.000
    O80     O    0.85828   0.46175   0.73931   1.000
    O81     O    0.83879   0.41283   0.74100   1.000
    Zr82    Zr   0.38932   0.92869   0.76448   1.000
    O83     O    0.35827   0.96175   0.73931   1.000
    O84     O    0.44982   0.91697   0.78821   1.000
    O85     O    0.33877   0.91282   0.74101   1.000
    O86     O    0.40806   0.97026   0.77695   1.000
    Zr87    Zr   0.11065   0.07129   0.23551   1.000
    O88     O    0.06740   0.13066   0.24531   1.000
    O89     O    0.09190   0.02971   0.22305   1.000
    O90     O    0.16120   0.08717   0.25897   1.000
    O91     O    0.14170   0.03823   0.26067   1.000
    O92     O    0.05017   0.08300   0.21178   1.000
    O93     O    0.04640   0.05939   0.25885   1.000
    Zr94    Zr   0.11065   0.07129   0.73552   1.000
    O95     O    0.06740   0.13066   0.74532   1.000
    O96     O    0.14170   0.03823   0.76069   1.000
    O97     O    0.04640   0.05939   0.75885   1.000
    O98     O    0.05017   0.08300   0.71179   1.000
    O99     O    0.16121   0.08717   0.75898   1.000
    O100    O    0.09191   0.02971   0.72303   1.000
    Zr101   Zr   0.88933   0.42870   0.26448   1.000
    O102    O    0.83878   0.41283   0.24100   1.000
    O103    O    0.85828   0.46175   0.23931   1.000
    O104    O    0.90807   0.47027   0.27695   1.000
    O105    O    0.94982   0.41698   0.28821   1.000
    Zr106   Zr   0.61066   0.57129   0.23552   1.000
    O107    O    0.55017   0.58300   0.21179   1.000
    O108    O    0.64171   0.53823   0.26068   1.000
    O109    O    0.66122   0.58717   0.25897   1.000
    O110    O    0.59192   0.52972   0.22303   1.000
    Zr111   Zr   0.38930   0.92870   0.26448   1.000
    O112    O    0.44981   0.91698   0.28821   1.000
    O113    O    0.35826   0.96175   0.23931   1.000
    O114    O    0.45357   0.94060   0.24116   1.000
    O115    O    0.40805   0.97027   0.27695   1.000
    O116    O    0.43257   0.86932   0.25468   1.000
    O117    O    0.33876   0.91282   0.24100   1.000
    Zr118   Zr   0.61067   0.07129   0.73552   1.000
    O119    O    0.56741   0.13066   0.74532   1.000
    O120    O    0.59192   0.02971   0.72306   1.000
    O121    O    0.66123   0.08717   0.75897   1.000
    O122    O    0.55018   0.08300   0.71179   1.000
    O123    O    0.54641   0.05939   0.75885   1.000
    O124    O    0.64172   0.03823   0.76069   1.000
    Zr125   Zr   0.11065   0.57128   0.73552   1.000
    O126    O    0.06740   0.63065   0.74532   1.000
    O127    O    0.09191   0.52971   0.72306   1.000
    O128    O    0.16121   0.58716   0.75898   1.000
    O129    O    0.14170   0.53823   0.76069   1.000
    O130    O    0.05017   0.58299   0.71178   1.000
    O131    O    0.04640   0.55938   0.75885   1.000
    Zr132   Zr   0.61067   0.57128   0.73552   1.000
    O133    O    0.56741   0.63065   0.74531   1.000
    O134    O    0.66123   0.58716   0.75897   1.000
    O135    O    0.64172   0.53823   0.76069   1.000
    O136    O    0.59193   0.52971   0.72306   1.000
    O137    O    0.55018   0.58299   0.71179   1.000
    O138    O    0.54641   0.55938   0.75885   1.000
    Zr139   Zr   0.88932   0.92870   0.26448   1.000
    O140    O    0.85827   0.96175   0.23931   1.000
    O141    O    0.90807   0.97027   0.27695   1.000
    O142    O    0.83878   0.91283   0.24100   1.000
    O143    O    0.94981   0.91698   0.28821   1.000
    O144    O    0.94307   0.90496   0.24792   1.000
    O145    O    0.66974   0.57059   0.71276   1.000
    O146    O    0.44307   0.40496   0.24790   1.000
    O147    O    0.33025   0.42939   0.28724   1.000
    O148    O    0.16972   0.57059   0.71276   1.000
    O149    O    0.83027   0.42939   0.28724   1.000
    O150    O    0.94308   0.40496   0.24792   1.000
    O151    O    0.83026   0.92939   0.28724   1.000
    O152    O    0.94309   0.90495   0.74791   1.000
    O153    O    0.83027   0.92938   0.78724   1.000
    O154    O    0.66972   0.57060   0.21276   1.000
    O155    O    0.55690   0.59502   0.25208   1.000
    O156    O    0.44308   0.40496   0.74792   1.000
    O157    O    0.33025   0.42939   0.78724   1.000
    O158    O    0.66973   0.07060   0.71276   1.000
    O159    O    0.33024   0.92938   0.28724   1.000
    O160    O    0.16972   0.07060   0.71276   1.000
    O161    O    0.66973   0.07060   0.21275   1.000
    O162    O    0.16971   0.07060   0.21275   1.000
    O163    O    0.44308   0.90495   0.74792   1.000
    O164    O    0.33026   0.92938   0.78724   1.000
    O165    O    0.94308   0.40496   0.74792   1.000
    O166    O    0.83027   0.42939   0.78724   1.000
    O167    O    0.16971   0.57060   0.21276   1.000
loop_
    _geom_bond_atom_site_label_1
    _geom_bond_atom_site_label_2
    _geom_bond_distance
    _geom_bond_site_symmetry_2
    _ccdc_geom_bond_type
    N0     O2        6.87148  1_455   S
    N1     O2        2.73306      .   S
    N3     O5        6.23584  1_566   S
    N4     O5        2.34442      .   S
    N7     O8        6.23582  1_554   S
    N6     O8        2.34428      .   S
    N9     O11       6.23673      .   S
    N10    O11       2.34331      .   S
    N13    O14       6.23569  1_556   S
    N12    O14       2.34440      .   S
    N16    O17       6.23664  1_545   S
    N15    O17       2.34357      .   S
    N19    O20       6.23576  1_565   S
    N18    O20       2.34446      .   S
    N22    O23       6.87163      .   S
    N21    O23       2.73301      .   S
    N25    O26       6.87159  1_455   S
    N24    O26       2.73296      .   S
    N28    O29       6.87162  1_455   S
    N27    O29       2.73292      .   S
    N30    O32       6.23579  1_566   S
    N31    O32       2.34446      .   S
    N33    O35       6.87164      .   S
    N34    O35       2.73302      .   S
    N37    O38       6.23623      .   S
    N36    O38       2.34383      .   S
    N40    O41       6.87167  1_455   S
    N39    O41       2.73294      .   S
    N43    O44       6.87162      .   S
    N42    O44       2.73270      .   S
    N46    O47       6.87173      .   S
    N45    O47       2.73304      .   S
    Zr48   O49       0.93027      .   S
    N36    O49       2.93777      .   S
    Zr48   O50       0.92231      .   S
    N22    O50       3.26504      .   S
    Zr48   O51       0.95739      .   S
    N24    O51       3.31789  1_655   S
    Zr48   O52       1.30734      .   S
    N25    O52       6.60182      .   S
    Zr48   O53       0.92059      .   S
    N12    O53       2.84653  1_655   S
    Zr48   O54       0.97597      .   S
    N0     O54       3.06952      .   S
    Zr55   O56       0.93029      .   S
    N7     O56       2.93772      .   S
    Zr55   O57       0.97601      .   S
    N22    O57       3.06987      .   S
    Zr55   O58       0.92254      .   S
    N0     O58       3.26601      .   S
    Zr55   O59       0.92075      .   S
    N10    O59       2.84685      .   S
    Zr60   O61       0.92078      .   S
    N13    O61       2.84688      .   S
    Zr60   O62       0.93020      .   S
    N37    O62       2.93771      .   S
    Zr60   O63       0.97598      .   S
    N45    O63       3.06988      .   S
    Zr60   O64       0.92246      .   S
    N28    O64       3.26595      .   S
    Zr65   O66       0.93014      .   S
    N15    O66       2.93815  1_565   S
    Zr65   O67       0.97598      .   S
    N21    O67       3.06942  1_565   S
    Zr65   O68       1.30751      .   S
    N33    O68       6.60173      .   S
    Zr65   O69       0.92234      .   S
    N1     O69       3.26500      .   S
    Zr65   O70       0.92070      .   S
    N4     O70       2.84672      .   S
    Zr65   O71       0.95756      .   S
    N34    O71       3.31811      .   S
    Zr72   O73       0.97610      .   S
    N27    O73       3.07007  1_545   S
    Zr72   O74       0.92254      .   S
    N46    O74       3.26610      .   S
    Zr72   O75       0.92063      .   S
    N3     O75       2.84660  1_455   S
    Zr72   O76       0.93030      .   S
    N16    O76       2.93789  1_545   S
    Zr77   O78       0.92065      .   S
    N6     O78       2.84664  1_455   S
    Zr77   O79       0.97597      .   S
    N39    O79       3.06985      .   S
    Zr77   O80       0.93020      .   S
    N9     O80       2.93768      .   S
    Zr77   O81       0.92251      .   S
    N43    O81       3.26609      .   S
    Zr82   O83       0.93030      .   S
    N18    O83       2.93790  1_545   S
    Zr82   O84       0.92075      .   S
    N30    O84       2.84683      .   S
    Zr82   O85       0.92248      .   S
    N40    O85       3.26605      .   S
    Zr82   O86       0.97611      .   S
    N42    O86       3.06946  1_545   S
    Zr87   O88       1.30748      .   S
    N0     O88       6.60171      .   S
    Zr87   O89       0.97600      .   S
    N25    O89       3.06942  1_565   S
    Zr87   O90       0.92234      .   S
    N34    O90       3.26512      .   S
    Zr87   O91       0.93013      .   S
    N19    O91       2.93814  1_565   S
    Zr87   O92       0.92057      .   S
    N31    O92       2.84649  1_655   S
    Zr87   O93       0.95744      .   S
    N1     O93       3.31805  1_655   S
    Zr94   O95       1.30736      .   S
    N28    O95       6.60176      .   S
    Zr94   O96       0.93033      .   S
    N3     O96       2.93791  1_565   S
    Zr94   O97       0.95739      .   S
    N27    O97       3.31795  1_655   S
    Zr94   O98       0.92054      .   S
    N16    O98       2.84658  1_655   S
    Zr94   O99       0.92236      .   S
    N42    O99       3.26446      .   S
    Zr94   O100      0.97632      .   S
    N40    O100      3.06920  1_565   S
    Zr101  O102      0.92254      .   S
    N33    O102      3.26614      .   S
    Zr101  O103      0.93029      .   S
    N12    O103      2.93771      .   S
    Zr101  O104      0.97600      .   S
    N24    O104      3.06993      .   S
    Zr101  O105      0.92063      .   S
    N36    O105      2.84661  1_455   S
    Zr106  O107      0.92072      .   S
    N7     O107      2.84675      .   S
    Zr106  O108      0.93006      .   S
    N10    O108      2.93800      .   S
    Zr106  O109      0.92231      .   S
    N24    O109      3.26492      .   S
    Zr106  O110      0.97623      .   S
    N33    O110      3.06899      .   S
    Zr111  O112      0.92079      .   S
    N15    O112      2.84688      .   S
    Zr111  O113      0.93031      .   S
    N4     O113      2.93778  1_545   S
    Zr111  O114      0.95735      .   S
    N21    O114      3.31733      .   S
    Zr111  O115      0.97608      .   S
    N34    O115      3.06987  1_545   S
    Zr111  O116      1.30753      .   S
    N22    O116      6.60131      .   S
    Zr111  O117      0.92251      .   S
    N25    O117      3.26598      .   S
    Zr118  O119      1.30737      .   S
    N43    O119      6.60181      .   S
    Zr118  O120      0.97604      .   S
    N46    O120      3.06968  1_565   S
    Zr118  O121      0.92230      .   S
    N27    O121      3.26503      .   S
    Zr118  O122      0.92067      .   S
    N18    O122      2.84681      .   S
    Zr118  O123      0.95751      .   S
    N42    O123      3.31743      .   S
    Zr118  O124      0.93033      .   S
    N30    O124      2.93792  1_565   S
    Zr125  O126      1.30746      .   S
    N40    O126      6.60177      .   S
    Zr125  O127      0.97591      .   S
    N28    O127      3.06945      .   S
    Zr125  O128      0.92234      .   S
    N45    O128      3.26515      .   S
    Zr125  O129      0.93024      .   S
    N6     O129      2.93772      .   S
    Zr125  O130      0.92084      .   S
    N9     O130      2.84640  1_655   S
    Zr125  O131      0.95739      .   S
    N39    O131      3.31798  1_655   S
    Zr132  O133      1.30744      .   S
    N46    O133      6.60174      .   S
    Zr132  O134      0.92228      .   S
    N39    O134      3.26501      .   S
    Zr132  O135      0.93024      .   S
    N13    O135      2.93773      .   S
    Zr132  O136      0.97592      .   S
    N43    O136      3.06946      .   S
    Zr132  O137      0.92070      .   S
    N37    O137      2.84684      .   S
    Zr132  O138      0.95752      .   S
    N45    O138      3.31814      .   S
    Zr139  O140      0.93031      .   S
    N31    O140      2.93777  1_545   S
    Zr139  O141      0.97607      .   S
    N1     O141      3.06993  1_545   S
    Zr139  O142      0.92250      .   S
    N21    O142      3.26610      .   S
    Zr139  O143      0.92066      .   S
    N19    O143      2.84666  1_455   S
    N25    O144      3.53964  1_455   S
    Zr139  O144      0.84914      .   S
    Zr132  O145      0.85438      .   S
    N9     O145      2.33606      .   S
    Zr55   O146      0.84930      .   S
    N33    O146      3.53947      .   S
    Zr55   O147      0.85437      .   S
    N36    O147      2.33603      .   S
    Zr125  O148      0.85439      .   S
    N37    O148      2.33608      .   S
    Zr101  O149      0.85427      .   S
    N10    O149      2.33614      .   S
    Zr101  O150      0.84906      .   S
    N0     O150      3.53960  1_455   S
    Zr139  O151      0.85425      .   S
    N15    O151      2.33610      .   S
    Zr72   O152      0.84921      .   S
    N40    O152      3.53942  1_455   S
    Zr72   O153      0.85438      .   S
    N30    O153      2.33605      .   S
    Zr106  O154      0.85444      .   S
    N12    O154      2.33609      .   S
    Zr106  O155      0.84916      .   S
    N22    O155      3.54038      .   S
    Zr60   O156      0.84919      .   S
    N43    O156      3.53979      .   S
    Zr60   O157      0.85435      .   S
    N6     O157      2.33600      .   S
    Zr118  O158      0.85441      .   S
    N16    O158      2.33610      .   S
    Zr111  O159      0.85424      .   S
    N19    O159      2.33607      .   S
    Zr94   O160      0.85441      .   S
    N18    O160      2.33612      .   S
    Zr65   O161      0.85436      .   S
    N31    O161      2.33597      .   S
    Zr87   O162      0.85437      .   S
    N4     O162      2.33599      .   S
    Zr82   O163      0.84912      .   S
    N46    O163      3.53978      .   S
    Zr82   O164      0.85437      .   S
    N3     O164      2.33604      .   S
    N28    O165      3.53962  1_455   S
    Zr77   O165      0.84909      .   S
    N13    O166      2.33602      .   S
    Zr77   O166      0.85436      .   S
    N7     O167      2.33611      .   S
    Zr48   O167      0.85444      .   S
