# CIF file generated by openbabel 2.4.90, see http://openbabel.sf.net
data_I
_chemical_name_common ''
_cell_length_a 11.706
_cell_length_b 20.742
_cell_length_c 23.396
_cell_angle_alpha 86.75
_cell_angle_beta 87.624
_cell_angle_gamma 83.614
_space_group_name_H-M_alt 'P 1'
_space_group_name_Hall 'P 1'
loop_
    _symmetry_equiv_pos_as_xyz
    x,y,z
loop_
    _atom_site_label
    _atom_site_type_symbol
    _atom_site_fract_x
    _atom_site_fract_y
    _atom_site_fract_z
    _atom_site_occupancy
    C0      C    0.11065   0.07129   0.23551   1.000
    C1      C    0.11065   0.07129   0.73552   1.000
    C2      C    0.11064   0.57129   0.23552   1.000
    C3      C    0.11065   0.57128   0.73552   1.000
    C4      C    0.61067   0.07129   0.23551   1.000
    C5      C    0.61067   0.07129   0.73552   1.000
    C6      C    0.61066   0.57129   0.23552   1.000
    C7      C    0.61067   0.57128   0.73552   1.000
    C8      C    0.38931   0.42870   0.26448   1.000
    C9      C    0.38931   0.42870   0.76448   1.000
    C10     C    0.38930   0.92870   0.26448   1.000
    C11     C    0.38932   0.92869   0.76448   1.000
    C12     C    0.88933   0.42870   0.26448   1.000
    C13     C    0.88933   0.42870   0.76448   1.000
    C14     C    0.88932   0.92870   0.26448   1.000
    C15     C    0.88934   0.92869   0.76448   1.000
    C16     C    0.35467   0.08968   0.33058   1.000
    C17     C    0.35468   0.08968   0.83059   1.000
    C18     C    0.35467   0.58967   0.33058   1.000
    C19     C    0.35467   0.58967   0.83059   1.000
    C20     C    0.85468   0.08968   0.33058   1.000
    C21     C    0.85469   0.08968   0.83059   1.000
    C22     C    0.85468   0.58968   0.33058   1.000
    C23     C    0.85469   0.58967   0.83059   1.000
    C24     C    0.33965   0.07476   0.15734   1.000
    C25     C    0.33966   0.07475   0.65734   1.000
    C26     C    0.33965   0.57475   0.15734   1.000
    C27     C    0.33965   0.57475   0.65734   1.000
    C28     C    0.83967   0.07476   0.15734   1.000
    C29     C    0.83967   0.07475   0.65734   1.000
    C30     C    0.83966   0.57475   0.15734   1.000
    C31     C    0.83967   0.57475   0.65734   1.000
    C32     C    0.14524   0.41033   0.16940   1.000
    C33     C    0.14526   0.41032   0.66941   1.000
    C34     C    0.14525   0.91032   0.16940   1.000
    C35     C    0.14525   0.91031   0.66941   1.000
    C36     C    0.64526   0.41033   0.16940   1.000
    C37     C    0.64527   0.41032   0.66940   1.000
    C38     C    0.64526   0.91033   0.16940   1.000
    C39     C    0.64526   0.91032   0.66940   1.000
    C40     C    0.16032   0.42523   0.34266   1.000
    C41     C    0.16033   0.42523   0.84266   1.000
    C42     C    0.16032   0.92523   0.34266   1.000
    C43     C    0.16032   0.92522   0.84266   1.000
    C44     C    0.66034   0.42523   0.34266   1.000
    C45     C    0.66034   0.42523   0.84266   1.000
    C46     C    0.66034   0.92523   0.34266   1.000
    C47     C    0.66034   0.92522   0.84266   1.000
    C48     C    0.24477   0.47764   0.08415   1.000
    C49     C    0.24477   0.47764   0.58410   1.000
    C50     C    0.24476   0.97764   0.08415   1.000
    C51     C    0.24477   0.97763   0.58415   1.000
    C52     C    0.74477   0.47764   0.08415   1.000
    C53     C    0.74478   0.47764   0.58415   1.000
    C54     C    0.74477   0.97764   0.08415   1.000
    C55     C    0.74477   0.97763   0.58415   1.000
    C56     C    0.00947   0.14103   0.36555   1.000
    C57     C    0.00947   0.14102   0.86550   1.000
    C58     C    0.00946   0.64102   0.36555   1.000
    C59     C    0.00947   0.64102   0.86556   1.000
    C60     C    0.50949   0.14103   0.36555   1.000
    C61     C    0.50949   0.14102   0.86550   1.000
    C62     C    0.50948   0.64103   0.36555   1.000
    C63     C    0.50950   0.64102   0.86556   1.000
    C64     C    0.38171   0.19595   0.36228   1.000
    C65     C    0.38171   0.19594   0.86229   1.000
    C66     C    0.38170   0.69594   0.36228   1.000
    C67     C    0.38171   0.69593   0.86220   1.000
    C68     C    0.88172   0.19595   0.36228   1.000
    C69     C    0.88172   0.19594   0.86229   1.000
    C70     C    0.88171   0.69594   0.36228   1.000
    C71     C    0.88173   0.69594   0.86228   1.000
    C72     C    0.33696   0.19061   0.23679   1.000
    C73     C    0.33697   0.19060   0.73680   1.000
    C74     C    0.33696   0.69060   0.23679   1.000
    C75     C    0.33697   0.69059   0.73680   1.000
    C76     C    0.83698   0.19061   0.23679   1.000
    C77     C    0.83699   0.19060   0.73680   1.000
    C78     C    0.83698   0.69060   0.23679   1.000
    C79     C    0.83698   0.69060   0.73680   1.000
    C80     C    0.34064   0.25913   0.27908   1.000
    C81     C    0.34063   0.25914   0.77908   1.000
    C82     C    0.34062   0.75914   0.27907   1.000
    C83     C    0.34064   0.75912   0.77909   1.000
    C84     C    0.84065   0.25913   0.27908   1.000
    C85     C    0.84065   0.25914   0.77908   1.000
    C86     C    0.84064   0.75914   0.27907   1.000
    C87     C    0.84066   0.75912   0.77909   1.000
    C88     C    0.01287   0.27228   0.32991   1.000
    C89     C    0.01288   0.27229   0.82992   1.000
    C90     C    0.01287   0.77229   0.32991   1.000
    C91     C    0.01287   0.77227   0.82992   1.000
    C92     C    0.51288   0.27228   0.32991   1.000
    C93     C    0.51290   0.27229   0.82990   1.000
    C94     C    0.51289   0.77229   0.32991   1.000
    C95     C    0.51289   0.77227   0.82992   1.000
    C96     C    0.13434   0.21206   0.32378   1.000
    C97     C    0.13435   0.21206   0.82378   1.000
    C98     C    0.13434   0.71206   0.32378   1.000
    C99     C    0.13435   0.71205   0.82379   1.000
    C100    C    0.63436   0.21206   0.32378   1.000
    C101    C    0.63437   0.21206   0.82370   1.000
    C102    C    0.63436   0.71206   0.32378   1.000
    C103    C    0.63437   0.71205   0.82379   1.000
    C104    C    0.45579   0.00086   0.09969   1.000
    C105    C    0.45580   0.00085   0.59969   1.000
    C106    C    0.45579   0.50085   0.09969   1.000
    C107    C    0.45579   0.50084   0.59969   1.000
    C108    C    0.95580   0.00086   0.09969   1.000
    C109    C    0.95581   0.00085   0.59969   1.000
    C110    C    0.95580   0.50085   0.09969   1.000
    C111    C    0.95580   0.50084   0.59969   1.000
    C112    C    0.42352   0.07649   0.06069   1.000
    C113    C    0.42353   0.07648   0.56070   1.000
    C114    C    0.42352   0.57648   0.06069   1.000
    C115    C    0.42353   0.57648   0.56070   1.000
    C116    C    0.92353   0.07649   0.06069   1.000
    C117    C    0.92354   0.07648   0.56000   1.000
    C118    C    0.92353   0.57648   0.06069   1.000
    C119    C    0.92354   0.57648   0.56000   1.000
    C120    C    0.41435   0.49786   0.48343   1.000
    C121    C    0.41435   0.49785   0.98343   1.000
    C122    C    0.41434   0.99785   0.48343   1.000
    C123    C    0.41435   0.99785   0.98343   1.000
    C124    C    0.91435   0.49786   0.48343   1.000
    C125    C    0.91436   0.49785   0.98343   1.000
    C126    C    0.91435   0.99785   0.48343   1.000
    C127    C    0.91436   0.99785   0.98343   1.000
    C128    C    0.41632   0.42901   0.03340   1.000
    C129    C    0.41633   0.42900   0.53340   1.000
    C130    C    0.41632   0.92900   0.03340   1.000
    C131    C    0.41633   0.92900   0.53340   1.000
    C132    C    0.91633   0.42900   0.03344   1.000
    C133    C    0.91633   0.42900   0.53340   1.000
    C134    C    0.91633   0.92900   0.03340   1.000
    C135    C    0.91633   0.92899   0.53340   1.000
    C136    C    0.17552   0.09115   0.05839   1.000
    C137    C    0.17553   0.09114   0.55840   1.000
    C138    C    0.17552   0.59114   0.05839   1.000
    C139    C    0.17553   0.59114   0.55839   1.000
    C140    C    0.67553   0.09115   0.05839   1.000
    C141    C    0.67553   0.09114   0.55840   1.000
    C142    C    0.67552   0.59114   0.05839   1.000
    C143    C    0.67553   0.59114   0.55800   1.000
    C144    C    0.27538   0.09278   0.49820   1.000
    C145    C    0.27539   0.09278   0.99828   1.000
    C146    C    0.27538   0.59278   0.49828   1.000
    C147    C    0.27539   0.59277   0.99828   1.000
    C148    C    0.77539   0.09278   0.49820   1.000
    C149    C    0.77539   0.09278   0.99828   1.000
    C150    C    0.77539   0.59278   0.49828   1.000
    C151    C    0.77539   0.59277   0.99828   1.000
    C152    C    0.25516   0.02235   0.41580   1.000
    C153    C    0.25517   0.02234   0.91585   1.000
    C154    C    0.25516   0.52234   0.41585   1.000
    C155    C    0.25517   0.52233   0.91585   1.000
    C156    C    0.75517   0.02235   0.41580   1.000
    C157    C    0.75517   0.02234   0.91585   1.000
    C158    C    0.75516   0.52234   0.41585   1.000
    C159    C    0.75517   0.52234   0.91585   1.000
    C160    C    0.49047   0.35895   0.13440   1.000
    C161    C    0.49047   0.35894   0.63446   1.000
    C162    C    0.49046   0.85894   0.13445   1.000
    C163    C    0.49048   0.85894   0.63446   1.000
    C164    C    0.99050   0.35895   0.13440   1.000
    C165    C    0.99050   0.35894   0.63446   1.000
    C166    C    0.99049   0.85894   0.13445   1.000
    C167    C    0.99050   0.85894   0.63446   1.000
    C168    C    0.11826   0.30405   0.13772   1.000
    C169    C    0.11826   0.30404   0.63773   1.000
    C170    C    0.11825   0.80404   0.13773   1.000
    C171    C    0.11827   0.80404   0.63773   1.000
    C172    C    0.61828   0.30405   0.13772   1.000
    C173    C    0.61828   0.30404   0.63773   1.000
    C174    C    0.61827   0.80404   0.13773   1.000
    C175    C    0.61829   0.80404   0.63773   1.000
    C176    C    0.16300   0.30938   0.26321   1.000
    C177    C    0.16301   0.30938   0.76322   1.000
    C178    C    0.16300   0.80938   0.26321   1.000
    C179    C    0.16301   0.80937   0.76322   1.000
    C180    C    0.66302   0.30938   0.26321   1.000
    C181    C    0.66303   0.30938   0.76322   1.000
    C182    C    0.66302   0.80938   0.26321   1.000
    C183    C    0.66303   0.80937   0.76322   1.000
    C184    C    0.15934   0.24085   0.22093   1.000
    C185    C    0.15934   0.24085   0.72093   1.000
    C186    C    0.15933   0.74085   0.22092   1.000
    C187    C    0.15935   0.74084   0.72093   1.000
    C188    C    0.65936   0.24085   0.22093   1.000
    C189    C    0.65936   0.24085   0.72093   1.000
    C190    C    0.65935   0.74085   0.22092   1.000
    C191    C    0.65937   0.74084   0.72090   1.000
    C192    C    0.48710   0.22769   0.17000   1.000
    C193    C    0.48712   0.22770   0.67010   1.000
    C194    C    0.48711   0.72770   0.17000   1.000
    C195    C    0.48711   0.72768   0.67010   1.000
    C196    C    0.98711   0.22769   0.17000   1.000
    C197    C    0.98713   0.22770   0.67010   1.000
    C198    C    0.98712   0.72770   0.17000   1.000
    C199    C    0.98712   0.72768   0.67010   1.000
    C200    C    0.36563   0.28792   0.17622   1.000
    C201    C    0.36564   0.28792   0.67623   1.000
    C202    C    0.36563   0.78792   0.17622   1.000
    C203    C    0.36564   0.78791   0.67623   1.000
    C204    C    0.86564   0.28792   0.17622   1.000
    C205    C    0.86565   0.28792   0.67623   1.000
    C206    C    0.86565   0.78792   0.17622   1.000
    C207    C    0.86565   0.78791   0.67623   1.000
    C208    C    0.04418   0.49913   0.40031   1.000
    C209    C    0.04419   0.49912   0.90032   1.000
    C210    C    0.04418   0.99912   0.40031   1.000
    C211    C    0.04419   0.99911   0.90032   1.000
    C212    C    0.54419   0.49912   0.40031   1.000
    C213    C    0.54420   0.49911   0.90030   1.000
    C214    C    0.54419   0.99912   0.40031   1.000
    C215    C    0.54419   0.99911   0.90030   1.000
    C216    C    0.07644   0.42349   0.43930   1.000
    C217    C    0.07645   0.42348   0.93931   1.000
    C218    C    0.07644   0.92348   0.43930   1.000
    C219    C    0.07644   0.92347   0.93931   1.000
    C220    C    0.57645   0.42349   0.43930   1.000
    C221    C    0.57646   0.42348   0.93931   1.000
    C222    C    0.57645   0.92348   0.43930   1.000
    C223    C    0.57645   0.92347   0.93931   1.000
    C224    C    0.08562   0.00212   0.01650   1.000
    C225    C    0.08563   0.00212   0.51658   1.000
    C226    C    0.08562   0.50212   0.01650   1.000
    C227    C    0.08562   0.50212   0.51658   1.000
    C228    C    0.58563   0.00212   0.01650   1.000
    C229    C    0.58564   0.00212   0.51658   1.000
    C230    C    0.58562   0.50212   0.01650   1.000
    C231    C    0.58563   0.50212   0.51658   1.000
    C232    C    0.08366   0.07098   0.46657   1.000
    C233    C    0.08366   0.07097   0.96657   1.000
    C234    C    0.08365   0.57097   0.46657   1.000
    C235    C    0.08366   0.57096   0.96657   1.000
    C236    C    0.58366   0.07097   0.46657   1.000
    C237    C    0.58367   0.07097   0.96657   1.000
    C238    C    0.58366   0.57097   0.46657   1.000
    C239    C    0.58367   0.57096   0.96657   1.000
    C240    C    0.32446   0.40883   0.44161   1.000
    C241    C    0.32446   0.40883   0.94161   1.000
    C242    C    0.32446   0.90883   0.44161   1.000
    C243    C    0.32446   0.90882   0.94161   1.000
    C244    C    0.82446   0.40883   0.44161   1.000
    C245    C    0.82447   0.40883   0.94161   1.000
    C246    C    0.82446   0.90883   0.44161   1.000
    C247    C    0.82447   0.90882   0.94161   1.000
    C248    C    0.22460   0.40719   0.00170   1.000
    C249    C    0.22460   0.40719   0.50172   1.000
    C250    C    0.22460   0.90718   0.00172   1.000
    C251    C    0.22460   0.90718   0.50172   1.000
    C252    C    0.72460   0.40719   0.00170   1.000
    C253    C    0.72461   0.40719   0.50172   1.000
    C254    C    0.72460   0.90718   0.00170   1.000
    C255    C    0.72461   0.90718   0.50172   1.000
    C256    C    0.43710   0.15909   0.33824   1.000
    C257    C    0.43711   0.15909   0.83825   1.000
    C258    C    0.43710   0.65910   0.33824   1.000
    C259    C    0.43711   0.65908   0.83825   1.000
    C260    C    0.93712   0.15909   0.33820   1.000
    C261    C    0.93713   0.15909   0.83825   1.000
    C262    C    0.93712   0.65909   0.33824   1.000
    C263    C    0.93712   0.65908   0.83825   1.000
    C264    C    0.39273   0.22501   0.25102   1.000
    C265    C    0.39274   0.22500   0.75105   1.000
    C266    C    0.39274   0.72500   0.25104   1.000
    C267    C    0.39274   0.72500   0.75103   1.000
    C268    C    0.89275   0.22501   0.25103   1.000
    C269    C    0.89276   0.22500   0.75105   1.000
    C270    C    0.89275   0.72500   0.25104   1.000
    C271    C    0.89276   0.72500   0.75100   1.000
    C272    C    0.06122   0.23773   0.30100   1.000
    C273    C    0.06121   0.23771   0.80101   1.000
    C274    C    0.06120   0.73771   0.30101   1.000
    C275    C    0.06123   0.73771   0.80101   1.000
    C276    C    0.56124   0.23773   0.30100   1.000
    C277    C    0.56122   0.23771   0.80101   1.000
    C278    C    0.56121   0.73771   0.30101   1.000
    C279    C    0.56124   0.73771   0.80101   1.000
    C280    C    0.38636   0.03915   0.08857   1.000
    C281    C    0.38636   0.03914   0.58857   1.000
    C282    C    0.38636   0.53914   0.08857   1.000
    C283    C    0.38636   0.53913   0.58857   1.000
    C284    C    0.88637   0.03915   0.08857   1.000
    C285    C    0.88637   0.03914   0.58857   1.000
    C286    C    0.88636   0.53914   0.08857   1.000
    C287    C    0.88637   0.53913   0.58857   1.000
    C288    C    0.36104   0.46766   0.01090   1.000
    C289    C    0.36104   0.46766   0.51090   1.000
    C290    C    0.36103   0.96766   0.01090   1.000
    C291    C    0.36104   0.96765   0.51090   1.000
    C292    C    0.86104   0.46766   0.01090   1.000
    C293    C    0.86105   0.46766   0.51090   1.000
    C294    C    0.86104   0.96765   0.01090   1.000
    C295    C    0.86105   0.96765   0.51090   1.000
    C296    C    0.22198   0.06194   0.02531   1.000
    C297    C    0.22199   0.06193   0.52531   1.000
    C298    C    0.22198   0.56193   0.02531   1.000
    C299    C    0.22199   0.56193   0.52531   1.000
    C300    C    0.72199   0.06194   0.02531   1.000
    C301    C    0.72199   0.06194   0.52531   1.000
    C302    C    0.72198   0.56193   0.02531   1.000
    C303    C    0.72199   0.56193   0.52531   1.000
    C304    C    0.06285   0.34089   0.16176   1.000
    C305    C    0.06286   0.34089   0.66176   1.000
    C306    C    0.06285   0.84089   0.16176   1.000
    C307    C    0.06285   0.84088   0.66177   1.000
    C308    C    0.56286   0.34089   0.16176   1.000
    C309    C    0.56287   0.34089   0.66170   1.000
    C310    C    0.56286   0.84089   0.16176   1.000
    C311    C    0.56287   0.84088   0.66177   1.000
    C312    C    0.10723   0.27499   0.24896   1.000
    C313    C    0.10724   0.27498   0.74898   1.000
    C314    C    0.10723   0.77497   0.24898   1.000
    C315    C    0.10724   0.77497   0.74897   1.000
    C316    C    0.60725   0.27499   0.24896   1.000
    C317    C    0.60726   0.27498   0.74898   1.000
    C318    C    0.60725   0.77497   0.24898   1.000
    C319    C    0.60725   0.77497   0.74897   1.000
    C320    C    0.43877   0.26227   0.19900   1.000
    C321    C    0.43876   0.26226   0.69901   1.000
    C322    C    0.43874   0.76225   0.19900   1.000
    C323    C    0.43877   0.76226   0.69900   1.000
    C324    C    0.93878   0.26227   0.19900   1.000
    C325    C    0.93877   0.26226   0.69901   1.000
    C326    C    0.93876   0.76225   0.19900   1.000
    C327    C    0.93879   0.76226   0.69901   1.000
    C328    C    0.11361   0.46083   0.41140   1.000
    C329    C    0.11362   0.46082   0.91144   1.000
    C330    C    0.11361   0.96082   0.41140   1.000
    C331    C    0.11362   0.96082   0.91144   1.000
    C332    C    0.61362   0.46083   0.41140   1.000
    C333    C    0.61363   0.46082   0.91144   1.000
    C334    C    0.61362   0.96082   0.41143   1.000
    C335    C    0.61363   0.96082   0.91144   1.000
    C336    C    0.13893   0.03232   0.48911   1.000
    C337    C    0.13894   0.03231   0.98911   1.000
    C338    C    0.13893   0.53231   0.48911   1.000
    C339    C    0.13893   0.53231   0.98911   1.000
    C340    C    0.63894   0.03232   0.48911   1.000
    C341    C    0.63894   0.03231   0.98911   1.000
    C342    C    0.63894   0.53231   0.48911   1.000
    C343    C    0.63894   0.53231   0.98911   1.000
    C344    C    0.27799   0.43804   0.47400   1.000
    C345    C    0.27800   0.43804   0.97470   1.000
    C346    C    0.27799   0.93803   0.47469   1.000
    C347    C    0.27800   0.93803   0.97470   1.000
    C348    C    0.77800   0.43804   0.47400   1.000
    C349    C    0.77800   0.43804   0.97470   1.000
    C350    C    0.77799   0.93803   0.47400   1.000
    C351    C    0.77800   0.93803   0.97470   1.000
    C352    C    0.48594   0.18890   0.28493   1.000
    C353    C    0.48597   0.18887   0.78493   1.000
    C354    C    0.48597   0.68887   0.28492   1.000
    C355    C    0.48595   0.68889   0.78490   1.000
    C356    C    0.98596   0.18890   0.28493   1.000
    C357    C    0.98599   0.18888   0.78493   1.000
    C358    C    0.98598   0.68887   0.28492   1.000
    C359    C    0.98597   0.68889   0.78494   1.000
    C360    C    0.30044   0.00997   0.05516   1.000
    C361    C    0.30045   0.00997   0.55516   1.000
    C362    C    0.30044   0.50996   0.05516   1.000
    C363    C    0.30044   0.50996   0.55516   1.000
    C364    C    0.80045   0.00997   0.05516   1.000
    C365    C    0.80045   0.00997   0.55516   1.000
    C366    C    0.80044   0.50996   0.05516   1.000
    C367    C    0.80044   0.50996   0.55516   1.000
    C368    C    0.01400   0.31111   0.21508   1.000
    C369    C    0.01402   0.31109   0.71508   1.000
    C370    C    0.01402   0.81108   0.21507   1.000
    C371    C    0.01401   0.81110   0.71509   1.000
    C372    C    0.51401   0.31111   0.21509   1.000
    C373    C    0.51404   0.31109   0.71508   1.000
    C374    C    0.51404   0.81108   0.21507   1.000
    C375    C    0.51402   0.81110   0.71509   1.000
    C376    C    0.19953   0.49000   0.44485   1.000
    C377    C    0.19953   0.49000   0.94485   1.000
    C378    C    0.19952   0.99000   0.44485   1.000
    C379    C    0.19953   0.98999   0.94485   1.000
    C380    C    0.69953   0.49000   0.44485   1.000
    C381    C    0.69954   0.49000   0.94485   1.000
    C382    C    0.69953   0.99000   0.44485   1.000
    C383    C    0.69953   0.98999   0.94485   1.000
    C384    C    0.24546   0.11364   0.29806   1.000
    C385    C    0.24547   0.11364   0.79807   1.000
    C386    C    0.24547   0.61364   0.29806   1.000
    C387    C    0.24547   0.61363   0.79807   1.000
    C388    C    0.74548   0.11364   0.29806   1.000
    C389    C    0.74549   0.11364   0.79806   1.000
    C390    C    0.74548   0.61364   0.29806   1.000
    C391    C    0.74549   0.61363   0.79806   1.000
    C392    C    0.43929   0.03955   0.29774   1.000
    C393    C    0.43930   0.03955   0.79774   1.000
    C394    C    0.43929   0.53955   0.29774   1.000
    C395    C    0.43930   0.53954   0.79774   1.000
    C396    C    0.93931   0.03955   0.29774   1.000
    C397    C    0.93932   0.03955   0.79774   1.000
    C398    C    0.93930   0.53955   0.29774   1.000
    C399    C    0.93931   0.53954   0.79774   1.000
    C400    C    0.33245   0.06450   0.39307   1.000
    C401    C    0.33246   0.06449   0.89300   1.000
    C402    C    0.33244   0.56449   0.39307   1.000
    C403    C    0.33245   0.56448   0.89308   1.000
    C404    C    0.83244   0.06450   0.39307   1.000
    C405    C    0.83245   0.06449   0.89307   1.000
    C406    C    0.83244   0.56450   0.39307   1.000
    C407    C    0.83245   0.56449   0.89307   1.000
    C408    C    0.44935   0.10254   0.17224   1.000
    C409    C    0.44936   0.10253   0.67225   1.000
    C410    C    0.44935   0.60253   0.17224   1.000
    C411    C    0.44936   0.60252   0.67225   1.000
    C412    C    0.94937   0.10253   0.17224   1.000
    C413    C    0.94938   0.10253   0.67225   1.000
    C414    C    0.94937   0.60253   0.17224   1.000
    C415    C    0.94937   0.60252   0.67220   1.000
    C416    C    0.22979   0.12208   0.15227   1.000
    C417    C    0.22980   0.12207   0.65227   1.000
    C418    C    0.22979   0.62207   0.15227   1.000
    C419    C    0.22980   0.62206   0.65227   1.000
    C420    C    0.72981   0.12208   0.15227   1.000
    C421    C    0.72982   0.12207   0.65227   1.000
    C422    C    0.72981   0.62207   0.15227   1.000
    C423    C    0.72982   0.62206   0.65227   1.000
    C424    C    0.30651   0.01685   0.19736   1.000
    C425    C    0.30652   0.01684   0.69737   1.000
    C426    C    0.30651   0.51684   0.19736   1.000
    C427    C    0.30651   0.51684   0.69737   1.000
    C428    C    0.80653   0.01685   0.19736   1.000
    C429    C    0.80654   0.01684   0.69737   1.000
    C430    C    0.80653   0.51684   0.19736   1.000
    C431    C    0.80653   0.51684   0.69737   1.000
    C432    C    0.25452   0.38637   0.20187   1.000
    C433    C    0.25453   0.38637   0.70188   1.000
    C434    C    0.25452   0.88637   0.20187   1.000
    C435    C    0.25452   0.88636   0.70188   1.000
    C436    C    0.75453   0.38637   0.20187   1.000
    C437    C    0.75455   0.38637   0.70187   1.000
    C438    C    0.75454   0.88637   0.20187   1.000
    C439    C    0.75454   0.88636   0.70187   1.000
    C440    C    0.06066   0.46043   0.20228   1.000
    C441    C    0.06067   0.46043   0.70229   1.000
    C442    C    0.06066   0.96043   0.20228   1.000
    C443    C    0.06066   0.96042   0.70220   1.000
    C444    C    0.56068   0.46043   0.20220   1.000
    C445    C    0.56068   0.46043   0.70229   1.000
    C446    C    0.56067   0.96043   0.20229   1.000
    C447    C    0.56068   0.96042   0.70229   1.000
    C448    C    0.16729   0.43555   0.10691   1.000
    C449    C    0.16730   0.43555   0.60691   1.000
    C450    C    0.16729   0.93555   0.10691   1.000
    C451    C    0.16730   0.93554   0.60690   1.000
    C452    C    0.66729   0.43556   0.10691   1.000
    C453    C    0.66729   0.43555   0.60691   1.000
    C454    C    0.66728   0.93555   0.10691   1.000
    C455    C    0.66730   0.93554   0.60691   1.000
    C456    C    0.05063   0.39745   0.32775   1.000
    C457    C    0.05063   0.39745   0.82775   1.000
    C458    C    0.05062   0.89744   0.32775   1.000
    C459    C    0.05063   0.89744   0.82775   1.000
    C460    C    0.55065   0.39745   0.32775   1.000
    C461    C    0.55065   0.39744   0.82775   1.000
    C462    C    0.55064   0.89744   0.32775   1.000
    C463    C    0.55065   0.89744   0.82775   1.000
    C464    C    0.27019   0.37792   0.34772   1.000
    C465    C    0.27020   0.37792   0.84772   1.000
    C466    C    0.27019   0.87791   0.34772   1.000
    C467    C    0.27020   0.87791   0.84772   1.000
    C468    C    0.77021   0.37792   0.34772   1.000
    C469    C    0.77022   0.37792   0.84772   1.000
    C470    C    0.77021   0.87791   0.34772   1.000
    C471    C    0.77021   0.87791   0.84772   1.000
    C472    C    0.19344   0.48315   0.30264   1.000
    C473    C    0.19345   0.48314   0.80264   1.000
    C474    C    0.19344   0.98314   0.30260   1.000
    C475    C    0.19344   0.98314   0.80264   1.000
    C476    C    0.69346   0.48315   0.30260   1.000
    C477    C    0.69346   0.48314   0.80264   1.000
    C478    C    0.69346   0.98314   0.30260   1.000
    C479    C    0.69346   0.98314   0.80264   1.000
    O480    O    0.75130   0.92261   0.98820   1.000
    O481    O    0.75130   0.42261   0.98820   1.000
    O482    O    0.25130   0.42261   0.98820   1.000
    O483    O    0.25130   0.92260   0.98821   1.000
    O484    O    0.88868   0.94833   0.02215   1.000
    O485    O    0.83074   0.98881   0.03303   1.000
    O486    O    0.81952   0.95284   0.99280   1.000
    O487    O    0.88770   0.98275   0.99717   1.000
    O488    O    0.38868   0.44833   0.02215   1.000
    O489    O    0.33074   0.48881   0.03303   1.000
    O490    O    0.31952   0.45285   0.99280   1.000
    O491    O    0.38769   0.48276   0.99717   1.000
    O492    O    0.38868   0.94833   0.02215   1.000
    O493    O    0.33074   0.98881   0.03303   1.000
    O494    O    0.31951   0.95284   0.99280   1.000
    O495    O    0.38769   0.98275   0.99717   1.000
    O496    O    0.88869   0.44833   0.02217   1.000
    O497    O    0.83074   0.48881   0.03303   1.000
    O498    O    0.81952   0.45285   0.99280   1.000
    O499    O    0.88770   0.48276   0.99717   1.000
    O500    O    0.61228   0.51721   0.00281   1.000
    O501    O    0.61229   0.01722   0.00281   1.000
    O502    O    0.11228   0.51721   0.00281   1.000
    O503    O    0.11228   0.01722   0.00281   1.000
    O504    O    0.76121   0.53595   0.04024   1.000
    O505    O    0.69875   0.57654   0.04185   1.000
    O506    O    0.68046   0.54712   0.00721   1.000
    O507    O    0.74869   0.57735   0.01180   1.000
    O508    O    0.76122   0.03595   0.04024   1.000
    O509    O    0.69876   0.07654   0.04185   1.000
    O510    O    0.68047   0.04713   0.00721   1.000
    O511    O    0.74869   0.07736   0.01180   1.000
    O512    O    0.26121   0.53595   0.04024   1.000
    O513    O    0.19875   0.57654   0.04185   1.000
    O514    O    0.18046   0.54712   0.00721   1.000
    O515    O    0.24868   0.57735   0.01180   1.000
    O516    O    0.26121   0.03595   0.04024   1.000
    O517    O    0.19875   0.07654   0.04185   1.000
    O518    O    0.18046   0.04713   0.00721   1.000
    O519    O    0.24869   0.07736   0.01180   1.000
    O520    O    0.27260   0.99380   0.06966   1.000
    O521    O    0.34340   0.02456   0.07187   1.000
    O522    O    0.77261   0.49380   0.06966   1.000
    O523    O    0.84340   0.52455   0.07187   1.000
    O524    O    0.27260   0.49380   0.06966   1.000
    O525    O    0.34340   0.52455   0.07187   1.000
    O526    O    0.77261   0.99380   0.06966   1.000
    O527    O    0.84341   0.02456   0.07187   1.000
    O528    O    0.40494   0.55781   0.07463   1.000
    O529    O    0.90495   0.05782   0.07463   1.000
    O530    O    0.40494   0.05782   0.07463   1.000
    O531    O    0.90495   0.55781   0.07463   1.000
    O532    O    0.92108   0.51999   0.09413   1.000
    O533    O    0.86301   0.55694   0.12296   1.000
    O534    O    0.92108   0.02000   0.09413   1.000
    O535    O    0.86302   0.05695   0.12296   1.000
    O536    O    0.42107   0.52000   0.09413   1.000
    O537    O    0.36300   0.55695   0.12296   1.000
    O538    O    0.42108   0.02000   0.09413   1.000
    O539    O    0.36300   0.05695   0.12296   1.000
    O540    O    0.65627   0.42294   0.13816   1.000
    O541    O    0.15627   0.92294   0.13816   1.000
    O542    O    0.15627   0.42294   0.13816   1.000
    O543    O    0.65627   0.92294   0.13816   1.000
    O544    O    0.02667   0.34992   0.14808   1.000
    O545    O    0.52667   0.34992   0.14808   1.000
    O546    O    0.02667   0.84992   0.14811   1.000
    O547    O    0.52666   0.84992   0.14811   1.000
    O548    O    0.09055   0.32247   0.14974   1.000
    O549    O    0.59057   0.32247   0.14974   1.000
    O550    O    0.09055   0.82247   0.14975   1.000
    O551    O    0.59057   0.82247   0.14975   1.000
    O552    O    0.28472   0.59841   0.15481   1.000
    O553    O    0.17022   0.59668   0.19390   1.000
    O554    O    0.78474   0.09842   0.15481   1.000
    O555    O    0.67024   0.09668   0.19389   1.000
    O556    O    0.78474   0.59841   0.15481   1.000
    O557    O    0.67023   0.59668   0.19390   1.000
    O558    O    0.28472   0.09842   0.15481   1.000
    O559    O    0.17022   0.09668   0.19389   1.000
    O560    O    0.89452   0.58864   0.16479   1.000
    O561    O    0.82310   0.54579   0.17735   1.000
    O562    O    0.89452   0.08865   0.16479   1.000
    O563    O    0.82310   0.04580   0.17735   1.000
    O564    O    0.39450   0.08865   0.16479   1.000
    O565    O    0.32308   0.04580   0.17735   1.000
    O566    O    0.39450   0.58864   0.16479   1.000
    O567    O    0.32308   0.54579   0.17735   1.000
    O568    O    0.60406   0.37561   0.16558   1.000
    O569    O    0.53844   0.32600   0.18843   1.000
    O570    O    0.10404   0.37561   0.16558   1.000
    O571    O    0.03842   0.32600   0.18842   1.000
    O572    O    0.10405   0.87561   0.16558   1.000
    O573    O    0.03843   0.82599   0.18842   1.000
    O574    O    0.60406   0.87561   0.16558   1.000
    O575    O    0.53845   0.82599   0.18842   1.000
    O576    O    0.19988   0.89835   0.18564   1.000
    O577    O    0.10295   0.93538   0.18584   1.000
    O578    O    0.69990   0.89835   0.18564   1.000
    O579    O    0.60297   0.93538   0.18584   1.000
    O580    O    0.19988   0.39835   0.18564   1.000
    O581    O    0.10295   0.43538   0.18584   1.000
    O582    O    0.69989   0.39835   0.18564   1.000
    O583    O    0.60297   0.43538   0.18580   1.000
    O584    O    0.46293   0.74497   0.18450   1.000
    O585    O    0.96295   0.24498   0.18450   1.000
    O586    O    0.96294   0.74498   0.18450   1.000
    O587    O    0.46293   0.24498   0.18450   1.000
    O588    O    0.03001   0.08691   0.20388   1.000
    O589    O    0.53000   0.58691   0.20388   1.000
    O590    O    0.53001   0.08691   0.20388   1.000
    O591    O    0.03000   0.58691   0.20388   1.000
    O592    O    0.40219   0.77509   0.18761   1.000
    O593    O    0.40220   0.27510   0.18761   1.000
    O594    O    0.90220   0.77509   0.18761   1.000
    O595    O    0.90221   0.27510   0.18761   1.000
    O596    O    0.84793   0.47277   0.23092   1.000
    O597    O    0.84793   0.97277   0.23092   1.000
    O598    O    0.34791   0.47277   0.23092   1.000
    O599    O    0.34791   0.97277   0.23092   1.000
    O600    O    0.97639   0.78667   0.20704   1.000
    O601    O    0.91576   0.74362   0.22502   1.000
    O602    O    0.47639   0.28669   0.20705   1.000
    O603    O    0.41575   0.24364   0.22501   1.000
    O604    O    0.47639   0.78667   0.20704   1.000
    O605    O    0.41574   0.74362   0.22502   1.000
    O606    O    0.97639   0.28669   0.20704   1.000
    O607    O    0.91577   0.24364   0.22502   1.000
    O608    O    0.32191   0.90753   0.23317   1.000
    O609    O    0.82193   0.40754   0.23317   1.000
    O610    O    0.32191   0.40754   0.23317   1.000
    O611    O    0.82193   0.90753   0.23317   1.000
    O612    O    0.47500   0.44457   0.23334   1.000
    O613    O    0.97499   0.94456   0.23338   1.000
    O614    O    0.97500   0.44457   0.23338   1.000
    O615    O    0.47499   0.94456   0.23339   1.000
    O616    O    0.06063   0.79303   0.23203   1.000
    O617    O    0.95167   0.86989   0.23978   1.000
    O618    O    0.56064   0.79303   0.23203   1.000
    O619    O    0.45167   0.86989   0.23978   1.000
    O620    O    0.06061   0.29305   0.23202   1.000
    O621    O    0.95167   0.36990   0.23978   1.000
    O622    O    0.56063   0.29305   0.23203   1.000
    O623    O    0.45166   0.36991   0.23979   1.000
    O624    O    0.63330   0.75791   0.23495   1.000
    O625    O    0.13328   0.75791   0.23495   1.000
    O626    O    0.63330   0.25792   0.23494   1.000
    O627    O    0.13329   0.25792   0.23494   1.000
    O628    O    0.04830   0.13009   0.26022   1.000
    O629    O    0.02498   0.05542   0.26663   1.000
    O630    O    0.17806   0.09246   0.26679   1.000
    O631    O    0.15205   0.02721   0.26906   1.000
    O632    O    0.54830   0.13009   0.26022   1.000
    O633    O    0.52498   0.05542   0.26663   1.000
    O634    O    0.67808   0.09246   0.26679   1.000
    O635    O    0.65206   0.02721   0.26906   1.000
    O636    O    0.54831   0.63008   0.26022   1.000
    O637    O    0.52497   0.55542   0.26663   1.000
    O638    O    0.67807   0.59246   0.26679   1.000
    O639    O    0.65206   0.52722   0.26906   1.000
    O640    O    0.04831   0.63008   0.26022   1.000
    O641    O    0.02497   0.55542   0.26663   1.000
    O642    O    0.17805   0.59246   0.26679   1.000
    O643    O    0.15204   0.52722   0.26908   1.000
    O644    O    0.86487   0.70780   0.24392   1.000
    O645    O    0.86486   0.20781   0.24391   1.000
    O646    O    0.36485   0.70780   0.24392   1.000
    O647    O    0.36485   0.20781   0.24391   1.000
    O648    O    0.13512   0.29218   0.25609   1.000
    O649    O    0.08423   0.25636   0.27498   1.000
    O650    O    0.63513   0.29219   0.25609   1.000
    O651    O    0.58424   0.25636   0.27498   1.000
    O652    O    0.13512   0.79218   0.25610   1.000
    O653    O    0.08422   0.75634   0.27499   1.000
    O654    O    0.63513   0.79218   0.25610   1.000
    O655    O    0.58423   0.75634   0.27499   1.000
    O656    O    0.36668   0.24207   0.26505   1.000
    O657    O    0.43934   0.20696   0.26798   1.000
    O658    O    0.86670   0.24207   0.26506   1.000
    O659    O    0.93936   0.20695   0.26798   1.000
    O660    O    0.36668   0.74207   0.26506   1.000
    O661    O    0.43935   0.70693   0.26798   1.000
    O662    O    0.86670   0.74207   0.26506   1.000
    O663    O    0.93937   0.70693   0.26798   1.000
    O664    O    0.46997   0.91307   0.29612   1.000
    O665    O    0.32975   0.90331   0.30610   1.000
    O666    O    0.96998   0.41308   0.29612   1.000
    O667    O    0.82977   0.40331   0.30610   1.000
    O668    O    0.46998   0.41307   0.29612   1.000
    O669    O    0.32975   0.40331   0.30610   1.000
    O670    O    0.96997   0.91307   0.29612   1.000
    O671    O    0.82976   0.90331   0.30610   1.000
    O672    O    0.52359   0.71329   0.29297   1.000
    O673    O    0.46153   0.67398   0.31158   1.000
    O674    O    0.02359   0.71329   0.29297   1.000
    O675    O    0.96155   0.67398   0.31158   1.000
    O676    O    0.02359   0.21331   0.29297   1.000
    O677    O    0.96154   0.17400   0.31157   1.000
    O678    O    0.52359   0.21331   0.29297   1.000
    O679    O    0.46152   0.17400   0.31159   1.000
    O680    O    0.39698   0.56461   0.31416   1.000
    O681    O    0.39698   0.06461   0.31416   1.000
    O682    O    0.89699   0.06462   0.31416   1.000
    O683    O    0.89699   0.56461   0.31416   1.000
    O684    O    0.30007   0.60165   0.31432   1.000
    O685    O    0.80008   0.10166   0.31432   1.000
    O686    O    0.30007   0.10166   0.31432   1.000
    O687    O    0.80008   0.60166   0.31432   1.000
    O688    O    0.09778   0.22489   0.31239   1.000
    O689    O    0.03704   0.25500   0.31546   1.000
    O690    O    0.59780   0.22489   0.31239   1.000
    O691    O    0.53706   0.25501   0.31546   1.000
    O692    O    0.09777   0.72488   0.31240   1.000
    O693    O    0.03704   0.75500   0.31546   1.000
    O694    O    0.59779   0.72489   0.31240   1.000
    O695    O    0.53705   0.75500   0.31546   1.000
    O696    O    0.67690   0.45419   0.32263   1.000
    O697    O    0.67690   0.95418   0.32263   1.000
    O698    O    0.17688   0.95418   0.32263   1.000
    O699    O    0.17688   0.45419   0.32265   1.000
    O700    O    0.60549   0.91133   0.33521   1.000
    O701    O    0.10548   0.41134   0.33521   1.000
    O702    O    0.60549   0.41134   0.33521   1.000
    O703    O    0.10547   0.91133   0.33521   1.000
    O704    O    0.89590   0.62438   0.33441   1.000
    O705    O    0.84356   0.57709   0.36183   1.000
    O706    O    0.89590   0.12438   0.33439   1.000
    O707    O    0.84356   0.07709   0.36183   1.000
    O708    O    0.39588   0.12438   0.33441   1.000
    O709    O    0.34356   0.07709   0.36183   1.000
    O710    O    0.39589   0.62438   0.33441   1.000
    O711    O    0.34356   0.57708   0.36183   1.000
    O712    O    0.90942   0.17752   0.35024   1.000
    O713    O    0.97329   0.15006   0.35188   1.000
    O714    O    0.40940   0.17752   0.35026   1.000
    O715    O    0.47330   0.15006   0.35190   1.000
    O716    O    0.40940   0.67752   0.35026   1.000
    O717    O    0.47329   0.65006   0.35190   1.000
    O718    O    0.90941   0.67752   0.35026   1.000
    O719    O    0.97329   0.65006   0.35190   1.000
    O720    O    0.21525   0.90157   0.34519   1.000
    O721    O    0.13697   0.94302   0.37703   1.000
    O722    O    0.71527   0.90157   0.34519   1.000
    O723    O    0.63698   0.94302   0.37705   1.000
    O724    O    0.71527   0.40158   0.34519   1.000
    O725    O    0.63698   0.44303   0.37703   1.000
    O726    O    0.21526   0.40158   0.34519   1.000
    O727    O    0.13697   0.44303   0.37703   1.000
    O728    O    0.57891   0.97997   0.40587   1.000
    O729    O    0.57891   0.47998   0.40586   1.000
    O730    O    0.07890   0.97997   0.40586   1.000
    O731    O    0.07890   0.47998   0.40586   1.000
    O732    O    0.59504   0.44216   0.42535   1.000
    O733    O    0.65658   0.47542   0.42813   1.000
    O734    O    0.09503   0.44216   0.42535   1.000
    O735    O    0.15657   0.47542   0.42813   1.000
    O736    O    0.09502   0.94215   0.42535   1.000
    O737    O    0.15657   0.97541   0.42813   1.000
    O738    O    0.59503   0.94215   0.42537   1.000
    O739    O    0.65658   0.97541   0.42814   1.000
    O740    O    0.72735   0.00617   0.43033   1.000
    O741    O    0.22734   0.00617   0.43033   1.000
    O742    O    0.72735   0.50617   0.43035   1.000
    O743    O    0.22734   0.50617   0.43035   1.000
    O744    O    0.30122   0.92343   0.45815   1.000
    O745    O    0.80123   0.92343   0.45781   1.000
    O746    O    0.80123   0.42344   0.45781   1.000
    O747    O    0.30123   0.42344   0.45781   1.000
    O748    O    0.73876   0.96402   0.45943   1.000
    O749    O    0.66923   0.01116   0.46698   1.000
    O750    O    0.73877   0.46402   0.45943   1.000
    O751    O    0.66923   0.51116   0.46698   1.000
    O752    O    0.23876   0.96402   0.45977   1.000
    O753    O    0.16923   0.01116   0.46698   1.000
    O754    O    0.23876   0.46402   0.45943   1.000
    O755    O    0.16923   0.51116   0.46698   1.000
    O756    O    0.11129   0.55164   0.47784   1.000
    O757    O    0.61130   0.05164   0.47784   1.000
    O758    O    0.61130   0.55164   0.47784   1.000
    O759    O    0.11129   0.05165   0.47784   1.000
    O760    O    0.75130   0.42261   0.48786   1.000
    O761    O    0.81952   0.45285   0.49245   1.000
    O762    O    0.75130   0.92261   0.48786   1.000
    O763    O    0.81952   0.95284   0.49245   1.000
    O764    O    0.25130   0.42261   0.48786   1.000
    O765    O    0.31952   0.45285   0.49245   1.000
    O766    O    0.25130   0.92261   0.48821   1.000
    O767    O    0.31951   0.95284   0.49280   1.000
    O768    O    0.38769   0.48276   0.49717   1.000
    O769    O    0.38769   0.98275   0.49717   1.000
    O770    O    0.88770   0.98275   0.49717   1.000
    O771    O    0.88770   0.48276   0.49717   1.000
    O772    O    0.61228   0.51721   0.50285   1.000
    O773    O    0.68046   0.54712   0.50721   1.000
    O774    O    0.61229   0.01722   0.50285   1.000
    O775    O    0.68047   0.04713   0.50721   1.000
    O776    O    0.11228   0.01722   0.50285   1.000
    O777    O    0.18046   0.04712   0.50721   1.000
    O778    O    0.11228   0.51721   0.50285   1.000
    O779    O    0.18046   0.54712   0.50721   1.000
    O780    O    0.74869   0.07736   0.51176   1.000
    O781    O    0.24869   0.07736   0.51176   1.000
    O782    O    0.74869   0.57735   0.51180   1.000
    O783    O    0.24868   0.57735   0.51180   1.000
    O784    O    0.88869   0.94832   0.52215   1.000
    O785    O    0.83075   0.98881   0.53303   1.000
    O786    O    0.88869   0.44833   0.52215   1.000
    O787    O    0.83075   0.48881   0.53303   1.000
    O788    O    0.38868   0.94832   0.52215   1.000
    O789    O    0.33074   0.98881   0.53303   1.000
    O790    O    0.38869   0.44833   0.52215   1.000
    O791    O    0.33074   0.48881   0.53303   1.000
    O792    O    0.26122   0.03595   0.54024   1.000
    O793    O    0.19876   0.07654   0.54186   1.000
    O794    O    0.26121   0.53594   0.54024   1.000
    O795    O    0.19876   0.57653   0.54185   1.000
    O796    O    0.76122   0.53594   0.54024   1.000
    O797    O    0.69876   0.57653   0.54166   1.000
    O798    O    0.76122   0.03595   0.54024   1.000
    O799    O    0.69876   0.07654   0.54186   1.000
    O800    O    0.77261   0.99380   0.56966   1.000
    O801    O    0.84341   0.02455   0.57187   1.000
    O802    O    0.27261   0.49380   0.56963   1.000
    O803    O    0.34340   0.52455   0.57187   1.000
    O804    O    0.77261   0.49380   0.56966   1.000
    O805    O    0.84341   0.52455   0.57187   1.000
    O806    O    0.27261   0.99380   0.56966   1.000
    O807    O    0.34340   0.02455   0.57187   1.000
    O808    O    0.90495   0.55780   0.57429   1.000
    O809    O    0.90496   0.05781   0.57429   1.000
    O810    O    0.40494   0.55781   0.57464   1.000
    O811    O    0.40495   0.05781   0.57464   1.000
    O812    O    0.92109   0.51999   0.59413   1.000
    O813    O    0.86302   0.55694   0.62296   1.000
    O814    O    0.92109   0.01999   0.59413   1.000
    O815    O    0.86302   0.05695   0.62296   1.000
    O816    O    0.42108   0.02000   0.59413   1.000
    O817    O    0.36301   0.05695   0.62296   1.000
    O818    O    0.42108   0.51999   0.59413   1.000
    O819    O    0.36301   0.55694   0.62296   1.000
    O820    O    0.15628   0.92293   0.63816   1.000
    O821    O    0.15628   0.42294   0.63816   1.000
    O822    O    0.65628   0.42294   0.63816   1.000
    O823    O    0.65628   0.92293   0.63816   1.000
    O824    O    0.52667   0.84991   0.64811   1.000
    O825    O    0.02668   0.34992   0.64811   1.000
    O826    O    0.02668   0.84991   0.64811   1.000
    O827    O    0.52667   0.34992   0.64808   1.000
    O828    O    0.59057   0.32247   0.64972   1.000
    O829    O    0.09056   0.32247   0.64975   1.000
    O830    O    0.09056   0.82246   0.64975   1.000
    O831    O    0.59058   0.82246   0.64975   1.000
    O832    O    0.28473   0.09841   0.65481   1.000
    O833    O    0.17022   0.09668   0.69390   1.000
    O834    O    0.28472   0.59841   0.65481   1.000
    O835    O    0.17023   0.59667   0.69390   1.000
    O836    O    0.78475   0.09841   0.65481   1.000
    O837    O    0.67024   0.09668   0.69390   1.000
    O838    O    0.78474   0.59841   0.65481   1.000
    O839    O    0.67024   0.59667   0.69390   1.000
    O840    O    0.89453   0.08864   0.66480   1.000
    O841    O    0.82310   0.04580   0.67736   1.000
    O842    O    0.39451   0.08864   0.66480   1.000
    O843    O    0.32309   0.04580   0.67736   1.000
    O844    O    0.39450   0.58863   0.66480   1.000
    O845    O    0.32308   0.54579   0.67736   1.000
    O846    O    0.89452   0.58863   0.66477   1.000
    O847    O    0.82310   0.54579   0.67736   1.000
    O848    O    0.60407   0.37561   0.66555   1.000
    O849    O    0.53846   0.32599   0.68839   1.000
    O850    O    0.10406   0.37561   0.66559   1.000
    O851    O    0.03844   0.32599   0.68842   1.000
    O852    O    0.60406   0.87560   0.66559   1.000
    O853    O    0.53845   0.82599   0.68843   1.000
    O854    O    0.10405   0.87560   0.66559   1.000
    O855    O    0.03843   0.82599   0.68843   1.000
    O856    O    0.69990   0.89834   0.68563   1.000
    O857    O    0.60297   0.93537   0.68585   1.000
    O858    O    0.69991   0.39835   0.68563   1.000
    O859    O    0.60298   0.43538   0.68585   1.000
    O860    O    0.19989   0.89834   0.68565   1.000
    O861    O    0.10296   0.93537   0.68581   1.000
    O862    O    0.19989   0.39835   0.68565   1.000
    O863    O    0.10296   0.43538   0.68585   1.000
    O864    O    0.46294   0.74497   0.68455   1.000
    O865    O    0.46294   0.24498   0.68456   1.000
    O866    O    0.96295   0.24498   0.68456   1.000
    O867    O    0.96296   0.74497   0.68456   1.000
    O868    O    0.03001   0.58690   0.70386   1.000
    O869    O    0.53001   0.08691   0.70388   1.000
    O870    O    0.03001   0.08691   0.70388   1.000
    O871    O    0.53001   0.58690   0.70388   1.000
    O872    O    0.40220   0.77508   0.68762   1.000
    O873    O    0.90221   0.27509   0.68762   1.000
    O874    O    0.40220   0.27509   0.68762   1.000
    O875    O    0.90222   0.77509   0.68762   1.000
    O876    O    0.34791   0.47277   0.73093   1.000
    O877    O    0.34792   0.97277   0.73093   1.000
    O878    O    0.84794   0.97277   0.73093   1.000
    O879    O    0.84793   0.47277   0.73093   1.000
    O880    O    0.47640   0.78668   0.70705   1.000
    O881    O    0.41576   0.74363   0.72502   1.000
    O882    O    0.97640   0.28667   0.70705   1.000
    O883    O    0.91577   0.24363   0.72503   1.000
    O884    O    0.97640   0.78668   0.70705   1.000
    O885    O    0.91577   0.74363   0.72501   1.000
    O886    O    0.47640   0.28667   0.70705   1.000
    O887    O    0.41575   0.24363   0.72503   1.000
    O888    O    0.82194   0.90753   0.73318   1.000
    O889    O    0.82194   0.40754   0.73318   1.000
    O890    O    0.32192   0.40754   0.73318   1.000
    O891    O    0.32192   0.90752   0.73318   1.000
    O892    O    0.97500   0.94456   0.73334   1.000
    O893    O    0.97500   0.44457   0.73338   1.000
    O894    O    0.47500   0.44457   0.73338   1.000
    O895    O    0.47500   0.94456   0.73338   1.000
    O896    O    0.56065   0.29303   0.73203   1.000
    O897    O    0.45168   0.36989   0.73978   1.000
    O898    O    0.06063   0.29303   0.73203   1.000
    O899    O    0.95168   0.36989   0.73978   1.000
    O900    O    0.56064   0.79304   0.73203   1.000
    O901    O    0.45167   0.86989   0.73979   1.000
    O902    O    0.06062   0.79303   0.73203   1.000
    O903    O    0.95167   0.86989   0.73979   1.000
    O904    O    0.63331   0.75791   0.73494   1.000
    O905    O    0.13329   0.25791   0.73496   1.000
    O906    O    0.13329   0.75791   0.73495   1.000
    O907    O    0.63331   0.25791   0.73496   1.000
    O908    O    0.04832   0.13008   0.76023   1.000
    O909    O    0.02498   0.05542   0.76663   1.000
    O910    O    0.17806   0.09246   0.76680   1.000
    O911    O    0.15205   0.02721   0.76908   1.000
    O912    O    0.04831   0.63008   0.76023   1.000
    O913    O    0.02498   0.55541   0.76663   1.000
    O914    O    0.17806   0.59245   0.76680   1.000
    O915    O    0.15205   0.52721   0.76908   1.000
    O916    O    0.54832   0.13008   0.76023   1.000
    O917    O    0.52498   0.05542   0.76663   1.000
    O918    O    0.67808   0.09246   0.76679   1.000
    O919    O    0.65207   0.02721   0.76908   1.000
    O920    O    0.54831   0.63008   0.76021   1.000
    O921    O    0.52499   0.55541   0.76663   1.000
    O922    O    0.67808   0.59245   0.76679   1.000
    O923    O    0.65207   0.52721   0.76908   1.000
    O924    O    0.86487   0.70780   0.74390   1.000
    O925    O    0.86487   0.20780   0.74392   1.000
    O926    O    0.36485   0.70780   0.74391   1.000
    O927    O    0.36486   0.20780   0.74392   1.000
    O928    O    0.13512   0.79217   0.75610   1.000
    O929    O    0.08423   0.75634   0.77499   1.000
    O930    O    0.63514   0.79217   0.75610   1.000
    O931    O    0.58425   0.75634   0.77499   1.000
    O932    O    0.63514   0.29218   0.75610   1.000
    O933    O    0.58424   0.25634   0.77500   1.000
    O934    O    0.13513   0.29218   0.75610   1.000
    O935    O    0.08423   0.25634   0.77500   1.000
    O936    O    0.86671   0.74206   0.76505   1.000
    O937    O    0.93936   0.70694   0.76797   1.000
    O938    O    0.36669   0.74206   0.76506   1.000
    O939    O    0.43935   0.70694   0.76797   1.000
    O940    O    0.36669   0.24207   0.76507   1.000
    O941    O    0.43936   0.20693   0.76799   1.000
    O942    O    0.86671   0.24207   0.76507   1.000
    O943    O    0.93937   0.20694   0.76799   1.000
    O944    O    0.46998   0.91306   0.79612   1.000
    O945    O    0.32976   0.90330   0.80610   1.000
    O946    O    0.96998   0.91306   0.79612   1.000
    O947    O    0.82977   0.90330   0.80610   1.000
    O948    O    0.96998   0.41307   0.79612   1.000
    O949    O    0.82977   0.40331   0.80610   1.000
    O950    O    0.46998   0.41307   0.79612   1.000
    O951    O    0.32976   0.40331   0.80610   1.000
    O952    O    0.52360   0.71330   0.79296   1.000
    O953    O    0.46153   0.67398   0.81158   1.000
    O954    O    0.02360   0.21329   0.79297   1.000
    O955    O    0.96156   0.17398   0.81159   1.000
    O956    O    0.52360   0.21329   0.79297   1.000
    O957    O    0.46154   0.17398   0.81159   1.000
    O958    O    0.02360   0.71330   0.79298   1.000
    O959    O    0.96155   0.67398   0.81160   1.000
    O960    O    0.39699   0.56460   0.81417   1.000
    O961    O    0.89700   0.56460   0.81417   1.000
    O962    O    0.39699   0.06461   0.81417   1.000
    O963    O    0.89700   0.06461   0.81417   1.000
    O964    O    0.80009   0.10166   0.81433   1.000
    O965    O    0.80009   0.60165   0.81433   1.000
    O966    O    0.30008   0.10166   0.81433   1.000
    O967    O    0.30007   0.60165   0.81433   1.000
    O968    O    0.09778   0.22488   0.81240   1.000
    O969    O    0.03705   0.25500   0.81547   1.000
    O970    O    0.09779   0.72488   0.81240   1.000
    O971    O    0.03705   0.75499   0.81547   1.000
    O972    O    0.59780   0.22489   0.81236   1.000
    O973    O    0.53706   0.25500   0.81546   1.000
    O974    O    0.59780   0.72488   0.81240   1.000
    O975    O    0.53707   0.75499   0.81547   1.000
    O976    O    0.17689   0.45419   0.82265   1.000
    O977    O    0.17688   0.95418   0.82265   1.000
    O978    O    0.67690   0.45419   0.82265   1.000
    O979    O    0.67690   0.95418   0.82265   1.000
    O980    O    0.10548   0.91133   0.83521   1.000
    O981    O    0.10548   0.41134   0.83521   1.000
    O982    O    0.60550   0.41134   0.83521   1.000
    O983    O    0.60550   0.91133   0.83521   1.000
    O984    O    0.89591   0.12438   0.83442   1.000
    O985    O    0.84357   0.07709   0.86183   1.000
    O986    O    0.89590   0.62437   0.83442   1.000
    O987    O    0.84357   0.57708   0.86183   1.000
    O988    O    0.39589   0.62437   0.83442   1.000
    O989    O    0.34356   0.57707   0.86184   1.000
    O990    O    0.39590   0.12438   0.83442   1.000
    O991    O    0.34357   0.07708   0.86180   1.000
    O992    O    0.40941   0.67751   0.85023   1.000
    O993    O    0.47330   0.65005   0.85191   1.000
    O994    O    0.40941   0.17752   0.85027   1.000
    O995    O    0.47330   0.15006   0.85188   1.000
    O996    O    0.90943   0.17752   0.85027   1.000
    O997    O    0.97330   0.15006   0.85188   1.000
    O998    O    0.90943   0.67751   0.85027   1.000
    O999    O    0.97330   0.65005   0.85191   1.000
    O1000   O    0.71528   0.90156   0.84519   1.000
    O1001   O    0.63698   0.94302   0.87705   1.000
    O1002   O    0.21526   0.40157   0.84519   1.000
    O1003   O    0.13697   0.44303   0.87705   1.000
    O1004   O    0.21526   0.90156   0.84519   1.000
    O1005   O    0.13697   0.94302   0.87705   1.000
    O1006   O    0.71528   0.40157   0.84519   1.000
    O1007   O    0.63699   0.44303   0.87705   1.000
    O1008   O    0.57891   0.47997   0.90587   1.000
    O1009   O    0.57891   0.97996   0.90587   1.000
    O1010   O    0.07890   0.97996   0.90588   1.000
    O1011   O    0.07890   0.47997   0.90588   1.000
    O1012   O    0.09503   0.44215   0.92538   1.000
    O1013   O    0.15658   0.47541   0.92815   1.000
    O1014   O    0.09503   0.94214   0.92538   1.000
    O1015   O    0.15657   0.97540   0.92815   1.000
    O1016   O    0.59504   0.44215   0.92538   1.000
    O1017   O    0.65658   0.47541   0.92815   1.000
    O1018   O    0.59504   0.94214   0.92538   1.000
    O1019   O    0.65658   0.97540   0.92815   1.000
    O1020   O    0.22735   0.00617   0.93035   1.000
    O1021   O    0.22735   0.50617   0.93035   1.000
    O1022   O    0.72735   0.00617   0.93035   1.000
    O1023   O    0.72735   0.50617   0.93035   1.000
    O1024   O    0.30123   0.92343   0.95816   1.000
    O1025   O    0.30123   0.42343   0.95816   1.000
    O1026   O    0.80123   0.92343   0.95816   1.000
    O1027   O    0.80124   0.42343   0.95816   1.000
    O1028   O    0.23876   0.46402   0.95978   1.000
    O1029   O    0.16923   0.51115   0.96698   1.000
    O1030   O    0.23876   0.96401   0.95978   1.000
    O1031   O    0.16923   0.01115   0.96698   1.000
    O1032   O    0.73877   0.46402   0.95978   1.000
    O1033   O    0.66924   0.51115   0.96698   1.000
    O1034   O    0.73877   0.96401   0.95978   1.000
    O1035   O    0.66924   0.01115   0.96698   1.000
    O1036   O    0.61130   0.55164   0.97784   1.000
    O1037   O    0.61131   0.05164   0.97784   1.000
    O1038   O    0.11130   0.55164   0.97784   1.000
    O1039   O    0.11130   0.05164   0.97784   1.000
    O1040   O    0.41430   0.98413   0.28111   1.000
    O1041   O    0.41431   0.98412   0.78111   1.000
    O1042   O    0.41430   0.48412   0.28111   1.000
    O1043   O    0.41431   0.48412   0.78111   1.000
    O1044   O    0.91432   0.98413   0.28111   1.000
    O1045   O    0.91433   0.98412   0.78111   1.000
    O1046   O    0.91432   0.48412   0.28111   1.000
    O1047   O    0.91432   0.48412   0.78111   1.000
    O1048   O    0.20858   0.04407   0.21644   1.000
    O1049   O    0.20858   0.04406   0.71644   1.000
    O1050   O    0.20858   0.54406   0.21644   1.000
    O1051   O    0.20858   0.54406   0.71644   1.000
    O1052   O    0.70860   0.04407   0.21644   1.000
    O1053   O    0.70860   0.04407   0.71644   1.000
    O1054   O    0.70859   0.54406   0.21644   1.000
    O1055   O    0.70860   0.54406   0.71644   1.000
    O1056   O    0.08565   0.51586   0.21890   1.000
    O1057   O    0.08566   0.51585   0.71891   1.000
    O1058   O    0.08565   0.01586   0.21889   1.000
    O1059   O    0.08566   0.01586   0.71886   1.000
    O1060   O    0.58567   0.51586   0.21886   1.000
    O1061   O    0.58568   0.51585   0.71891   1.000
    O1062   O    0.58567   0.01586   0.21890   1.000
    O1063   O    0.58568   0.01586   0.71891   1.000
    O1064   O    0.29138   0.45592   0.28356   1.000
    O1065   O    0.29138   0.45592   0.78356   1.000
    O1066   O    0.29137   0.95592   0.28354   1.000
    O1067   O    0.29138   0.95591   0.78356   1.000
    O1068   O    0.79140   0.45592   0.28354   1.000
    O1069   O    0.79140   0.45592   0.78356   1.000
    O1070   O    0.79139   0.95592   0.28354   1.000
    O1071   O    0.79140   0.95591   0.78356   1.000
loop_
    _geom_bond_atom_site_label_1
    _geom_bond_atom_site_label_2
    _geom_bond_distance
    _geom_bond_site_symmetry_2
    _ccdc_geom_bond_type
    C254   O480      0.54989  1_554   S
    C351   O480      0.54989      .   S
    C252   O481      0.54989  1_554   S
    C349   O481      0.54989      .   S
    C248   O482      0.54989  1_554   S
    C345   O482      0.54989      .   S
    C250   O483      0.55001  1_554   S
    C347   O483      0.55001      .   S
    C294   O484      0.54857      .   S
    C134   O484      0.54857      .   S
    C294   O485      0.74991      .   S
    C364   O485      0.74991  1_545   S
    C294   O486      0.75828  1_554   S
    C351   O486      0.75828      .   S
    C294   O487      0.54837  1_554   S
    C127   O487      0.54837      .   S
    C288   O488      0.54857      .   S
    C128   O488      0.54857      .   S
    C288   O489      0.74985      .   S
    C362   O489      0.74985      .   S
    C288   O490      0.75828  1_554   S
    C345   O490      0.75828      .   S
    C288   O491      0.54837  1_554   S
    C121   O491      0.54837      .   S
    C290   O492      0.54858      .   S
    C130   O492      0.54858      .   S
    C290   O493      0.74990      .   S
    C360   O493      0.74990  1_545   S
    C290   O494      0.75829  1_554   S
    C347   O494      0.75829      .   S
    C290   O495      0.54836  1_554   S
    C123   O495      0.54836      .   S
    C292   O496      0.54879      .   S
    C132   O496      0.54879      .   S
    C292   O497      0.74986      .   S
    C366   O497      0.74986      .   S
    C292   O498      0.75828  1_554   S
    C349   O498      0.75828      .   S
    C292   O499      0.54837  1_554   S
    C125   O499      0.54837      .   S
    C230   O500      0.54784      .   S
    C343   O500      0.54784  1_556   S
    C228   O501      0.54784      .   S
    C341   O501      0.54784  1_556   S
    C226   O502      0.54784      .   S
    C339   O502      0.54784  1_556   S
    C224   O503      0.54785      .   S
    C337   O503      0.54785  1_556   S
    C302   O504      0.74846      .   S
    C366   O504      0.74846      .   S
    C302   O505      0.54927      .   S
    C142   O505      0.54927      .   S
    C302   O506      0.75830      .   S
    C343   O506      0.75830  1_556   S
    C302   O507      0.55007      .   S
    C151   O507      0.55007  1_556   S
    C300   O508      0.74845      .   S
    C364   O508      0.74845      .   S
    C300   O509      0.54928      .   S
    C140   O509      0.54928      .   S
    C300   O510      0.75830      .   S
    C341   O510      0.75830  1_556   S
    C300   O511      0.55007      .   S
    C149   O511      0.55007  1_556   S
    C298   O512      0.74846      .   S
    C362   O512      0.74846      .   S
    C298   O513      0.54927      .   S
    C138   O513      0.54927      .   S
    C298   O514      0.75830      .   S
    C339   O514      0.75830  1_556   S
    C298   O515      0.55007      .   S
    C147   O515      0.55007  1_556   S
    C296   O516      0.74846      .   S
    C360   O516      0.74846      .   S
    C296   O517      0.54927      .   S
    C136   O517      0.54927      .   S
    C296   O518      0.75831      .   S
    C337   O518      0.75831  1_556   S
    C296   O519      0.55007      .   S
    C145   O519      0.55007  1_556   S
    C360   O520      0.57956  1_545   S
    C50    O520      0.57956      .   S
    C360   O521      0.74884      .   S
    C280   O521      0.74884      .   S
    C366   O522      0.57947      .   S
    C52    O522      0.57947      .   S
    C366   O523      0.74883      .   S
    C286   O523      0.74883      .   S
    C362   O524      0.57945      .   S
    C48    O524      0.57945      .   S
    C362   O525      0.74883      .   S
    C282   O525      0.74883      .   S
    C364   O526      0.57956  1_545   S
    C54    O526      0.57956      .   S
    C364   O527      0.74884      .   S
    C284   O527      0.74884      .   S
    C114   O528      0.54974      .   S
    C282   O528      0.54974      .   S
    C116   O529      0.54974      .   S
    C284   O529      0.54974      .   S
    C112   O530      0.54974      .   S
    C280   O530      0.54974      .   S
    C118   O531      0.54974      .   S
    C286   O531      0.54974      .   S
    C286   O532      0.54992      .   S
    C110   O532      0.54992      .   S
    C286   O533      0.92265      .   S
    C30    O533      0.92265      .   S
    C284   O534      0.54992      .   S
    C108   O534      0.54992      .   S
    C284   O535      0.92265      .   S
    C28    O535      0.92265      .   S
    C282   O536      0.54992      .   S
    C106   O536      0.54992      .   S
    C282   O537      0.92266      .   S
    C26    O537      0.92266      .   S
    C280   O538      0.54992      .   S
    C104   O538      0.54992      .   S
    C280   O539      0.92265      .   S
    C24    O539      0.92265      .   S
    C452   O540      0.77296      .   S
    C36    O540      0.77296      .   S
    C450   O541      0.77295      .   S
    C34    O541      0.77295      .   S
    C448   O542      0.77297      .   S
    C32    O542      0.77297      .   S
    C454   O543      0.77295      .   S
    C38    O543      0.77295      .   S
    C164   O544      0.55102  1_655   S
    C304   O544      0.55102      .   S
    C160   O545      0.55119      .   S
    C308   O545      0.55119      .   S
    C166   O546      0.55070  1_655   S
    C306   O546      0.55070      .   S
    C162   O547      0.55087      .   S
    C310   O547      0.55087      .   S
    C168   O548      0.55437      .   S
    C304   O548      0.55437      .   S
    C172   O549      0.55436      .   S
    C308   O549      0.55436      .   S
    C170   O550      0.55436      .   S
    C306   O550      0.55436      .   S
    C174   O551      0.55435      .   S
    C310   O551      0.55435      .   S
    C418   O552      0.76646      .   S
    C26    O552      0.76646      .   S
    C418   O553      1.29590      .   S
    C2     O553      1.29590      .   S
    C420   O554      0.76645      .   S
    C28    O554      0.76645      .   S
    C420   O555      1.29583      .   S
    C4     O555      1.29583      .   S
    C422   O556      0.76645      .   S
    C30    O556      0.76645      .   S
    C422   O557      1.29590      .   S
    C6     O557      1.29590      .   S
    C416   O558      0.76645      .   S
    C24    O558      0.76645      .   S
    C416   O559      1.29583      .   S
    C0     O559      1.29583      .   S
    C30    O560      0.76274      .   S
    C414   O560      0.76274      .   S
    C30    O561      0.77718      .   S
    C430   O561      0.77718      .   S
    C28    O562      0.76274      .   S
    C412   O562      0.76274      .   S
    C28    O563      0.77718      .   S
    C428   O563      0.77718      .   S
    C24    O564      0.76274      .   S
    C408   O564      0.76274      .   S
    C24    O565      0.77718      .   S
    C424   O565      0.77718      .   S
    C26    O566      0.76274      .   S
    C410   O566      0.76274      .   S
    C26    O567      0.77718      .   S
    C426   O567      0.77718      .   S
    C308   O568      0.92047      .   S
    C36    O568      0.92047      .   S
    C308   O569      0.74116      .   S
    C372   O569      0.74116      .   S
    C304   O570      0.92046      .   S
    C32    O570      0.92046      .   S
    C304   O571      0.74108      .   S
    C368   O571      0.74108      .   S
    C306   O572      0.92044      .   S
    C34    O572      0.92044      .   S
    C306   O573      0.74107      .   S
    C370   O573      0.74107      .   S
    C310   O574      0.92045      .   S
    C38    O574      0.92045      .   S
    C310   O575      0.74106      .   S
    C374   O575      0.74106      .   S
    C34    O576      0.76756      .   S
    C434   O576      0.76756      .   S
    C34    O577      0.78277      .   S
    C442   O577      0.78277      .   S
    C38    O578      0.76759      .   S
    C438   O578      0.76759      .   S
    C38    O579      0.78280      .   S
    C446   O579      0.78280      .   S
    C32    O580      0.76755      .   S
    C432   O580      0.76755      .   S
    C32    O581      0.78278      .   S
    C440   O581      0.78278      .   S
    C36    O582      0.76759      .   S
    C436   O582      0.76759      .   S
    C36    O583      0.78228      .   S
    C444   O583      0.78228      .   S
    C194   O584      0.55400      .   S
    C322   O584      0.55400      .   S
    C196   O585      0.55404      .   S
    C324   O585      0.55404      .   S
    C198   O586      0.55399      .   S
    C326   O586      0.55399      .   S
    C192   O587      0.55407      .   S
    C320   O587      0.55407      .   S
    C412   O588      1.22743  1_655   S
    C0     O588      1.22743      .   S
    C410   O589      1.22762      .   S
    C6     O589      1.22762      .   S
    C408   O590      1.22760      .   S
    C4     O590      1.22760      .   S
    C414   O591      1.22746  1_655   S
    C2     O591      1.22746      .   S
    C202   O592      0.54871      .   S
    C322   O592      0.54871      .   S
    C200   O593      0.54875      .   S
    C320   O593      0.54875      .   S
    C206   O594      0.54871      .   S
    C326   O594      0.54871      .   S
    C204   O595      0.54876      .   S
    C324   O595      0.54876      .   S
    C430   O596      1.24038      .   S
    C12    O596      1.24038      .   S
    C428   O597      1.24041  1_545   S
    C14    O597      1.24041      .   S
    C426   O598      1.24039      .   S
    C8     O598      1.24039      .   S
    C424   O599      1.24041  1_545   S
    C10    O599      1.24041      .   S
    C326   O600      0.74369      .   S
    C370   O600      0.74369  1_455   S
    C326   O601      0.75849      .   S
    C270   O601      0.75849      .   S
    C320   O602      0.74381      .   S
    C372   O602      0.74381      .   S
    C320   O603      0.75839      .   S
    C264   O603      0.75839      .   S
    C322   O604      0.74383      .   S
    C374   O604      0.74383      .   S
    C322   O605      0.75849      .   S
    C266   O605      0.75849      .   S
    C324   O606      0.74364      .   S
    C368   O606      0.74364  1_455   S
    C324   O607      0.75847      .   S
    C268   O607      0.75847      .   S
    C434   O608      1.23001      .   S
    C10    O608      1.23001      .   S
    C436   O609      1.23005      .   S
    C12    O609      1.23005      .   S
    C432   O610      1.23005      .   S
    C8     O610      1.23005      .   S
    C438   O611      1.23001      .   S
    C14    O611      1.23001      .   S
    C444   O612      1.27701      .   S
    C8     O612      1.27701      .   S
    C442   O613      1.27636  1_455   S
    C14    O613      1.27636      .   S
    C440   O614      1.27635  1_455   S
    C12    O614      1.27635      .   S
    C446   O615      1.27647      .   S
    C10    O615      1.27647      .   S
    C370   O616      0.74221      .   S
    C314   O616      0.74221      .   S
    C370   O617      1.48380  1_455   S
    C14    O617      1.48380      .   S
    C374   O618      0.74222      .   S
    C318   O618      0.74222      .   S
    C374   O619      1.48386      .   S
    C10    O619      1.48386      .   S
    C368   O620      0.74217      .   S
    C312   O620      0.74217      .   S
    C368   O621      1.48345  1_455   S
    C12    O621      1.48345      .   S
    C372   O622      0.74212      .   S
    C316   O622      0.74212      .   S
    C372   O623      1.48344      .   S
    C8     O623      1.48344      .   S
    C190   O624      0.55391      .   S
    C318   O624      0.55391      .   S
    C186   O625      0.55392      .   S
    C314   O625      0.55392      .   S
    C188   O626      0.55386      .   S
    C316   O626      0.55386      .   S
    C184   O627      0.55385      .   S
    C312   O627      0.55385      .   S
    C0     O628      1.48380      .   S
    C356   O628      1.48380  1_655   S
    C0     O629      1.27658      .   S
    C396   O629      1.27658  1_655   S
    C0     O630      1.22978      .   S
    C384   O630      1.22978      .   S
    C0     O631      1.24018      .   S
    C474   O631      1.24018  1_565   S
    C4     O632      1.48389      .   S
    C352   O632      1.48389      .   S
    C4     O633      1.27675      .   S
    C392   O633      1.27675      .   S
    C4     O634      1.22978      .   S
    C388   O634      1.22978      .   S
    C4     O635      1.24018      .   S
    C478   O635      1.24018  1_565   S
    C6     O636      1.48346      .   S
    C354   O636      1.48346      .   S
    C6     O637      1.27668      .   S
    C394   O637      1.27668      .   S
    C6     O638      1.22975      .   S
    C390   O638      1.22975      .   S
    C6     O639      1.24008      .   S
    C476   O639      1.24008      .   S
    C2     O640      1.48340      .   S
    C358   O640      1.48340  1_655   S
    C2     O641      1.27652      .   S
    C398   O641      1.27652  1_655   S
    C2     O642      1.22975      .   S
    C386   O642      1.22975      .   S
    C2     O643      1.24037      .   S
    C472   O643      1.24037      .   S
    C78    O644      0.54656      .   S
    C270   O644      0.54656      .   S
    C76    O645      0.54659      .   S
    C268   O645      0.54659      .   S
    C74    O646      0.54657      .   S
    C266   O646      0.54657      .   S
    C72    O647      0.54656      .   S
    C264   O647      0.54656      .   S
    C312   O648      0.54657      .   S
    C176   O648      0.54657      .   S
    C312   O649      0.75850      .   S
    C272   O649      0.75850      .   S
    C316   O650      0.54656      .   S
    C180   O650      0.54656      .   S
    C316   O651      0.75850      .   S
    C276   O651      0.75850      .   S
    C314   O652      0.54655      .   S
    C178   O652      0.54655      .   S
    C314   O653      0.75848      .   S
    C274   O653      0.75848      .   S
    C318   O654      0.54655      .   S
    C182   O654      0.54655      .   S
    C318   O655      0.75849      .   S
    C278   O655      0.75849      .   S
    C264   O656      0.55391      .   S
    C80    O656      0.55391      .   S
    C264   O657      0.74220      .   S
    C352   O657      0.74220      .   S
    C268   O658      0.55386      .   S
    C84    O658      0.55386      .   S
    C268   O659      0.74215      .   S
    C356   O659      0.74215      .   S
    C266   O660      0.55387      .   S
    C82    O660      0.55387      .   S
    C266   O661      0.74216      .   S
    C354   O661      0.74216      .   S
    C270   O662      0.55387      .   S
    C86    O662      0.55387      .   S
    C270   O663      0.74216      .   S
    C358   O663      0.74216      .   S
    C10    O664      1.22772      .   S
    C462   O664      1.22772      .   S
    C10    O665      1.29573      .   S
    C466   O665      1.29573      .   S
    C12    O666      1.22750      .   S
    C456   O666      1.22750  1_455   S
    C12    O667      1.29572      .   S
    C468   O667      1.29572      .   S
    C8     O668      1.22767      .   S
    C460   O668      1.22767      .   S
    C8     O669      1.29572      .   S
    C464   O669      1.29572      .   S
    C14    O670      1.22754      .   S
    C458   O670      1.22754  1_455   S
    C14    O671      1.29573      .   S
    C470   O671      1.29573      .   S
    C354   O672      0.74382      .   S
    C278   O672      0.74382      .   S
    C354   O673      0.74109      .   S
    C258   O673      0.74109      .   S
    C358   O674      0.74369  1_655   S
    C274   O674      0.74369      .   S
    C358   O675      0.74111      .   S
    C262   O675      0.74111      .   S
    C356   O676      0.74369  1_655   S
    C272   O676      0.74369      .   S
    C356   O677      0.74072      .   S
    C260   O677      0.74072      .   S
    C352   O678      0.74384      .   S
    C276   O678      0.74384      .   S
    C352   O679      0.74108      .   S
    C256   O679      0.74108      .   S
    C394   O680      0.78276      .   S
    C18    O680      0.78276      .   S
    C392   O681      0.78276      .   S
    C16    O681      0.78276      .   S
    C396   O682      0.78278      .   S
    C20    O682      0.78278      .   S
    C398   O683      0.78278      .   S
    C22    O683      0.78278      .   S
    C386   O684      0.76755      .   S
    C18    O684      0.76755      .   S
    C388   O685      0.76752      .   S
    C20    O685      0.76752      .   S
    C384   O686      0.76755      .   S
    C16    O686      0.76755      .   S
    C390   O687      0.76751      .   S
    C22    O687      0.76751      .   S
    C272   O688      0.54873      .   S
    C96    O688      0.54873      .   S
    C272   O689      0.55332      .   S
    C88    O689      0.55332      .   S
    C276   O690      0.54872      .   S
    C100   O690      0.54872      .   S
    C276   O691      0.55333      .   S
    C92    O691      0.55333      .   S
    C274   O692      0.54871      .   S
    C98    O692      0.54871      .   S
    C274   O693      0.55331      .   S
    C90    O693      0.55331      .   S
    C278   O694      0.54871      .   S
    C102   O694      0.54871      .   S
    C278   O695      0.55332      .   S
    C94    O695      0.55332      .   S
    C476   O696      0.77745      .   S
    C44    O696      0.77745      .   S
    C478   O697      0.77744      .   S
    C46    O697      0.77744      .   S
    C474   O698      0.77745      .   S
    C42    O698      0.77745      .   S
    C472   O699      0.77719      .   S
    C40    O699      0.77719      .   S
    C462   O700      0.76274      .   S
    C46    O700      0.76274      .   S
    C456   O701      0.76274      .   S
    C40    O701      0.76274      .   S
    C460   O702      0.76275      .   S
    C44    O702      0.76275      .   S
    C458   O703      0.76275      .   S
    C42    O703      0.76275      .   S
    C22    O704      0.92050      .   S
    C262   O704      0.92050      .   S
    C22    O705      0.77301      .   S
    C406   O705      0.77301      .   S
    C20    O706      0.92040      .   S
    C260   O706      0.92040      .   S
    C20    O707      0.77299      .   S
    C404   O707      0.77299      .   S
    C16    O708      0.92048      .   S
    C256   O708      0.92048      .   S
    C16    O709      0.77299      .   S
    C400   O709      0.77299      .   S
    C18    O710      0.92051      .   S
    C258   O710      0.92051      .   S
    C18    O711      0.77300      .   S
    C402   O711      0.77300      .   S
    C260   O712      0.55465      .   S
    C68    O712      0.55465      .   S
    C260   O713      0.55097      .   S
    C56    O713      0.55097  1_455   S
    C256   O714      0.55441      .   S
    C64    O714      0.55441      .   S
    C256   O715      0.55087      .   S
    C60    O715      0.55087      .   S
    C258   O716      0.55435      .   S
    C66    O716      0.55435      .   S
    C258   O717      0.55084      .   S
    C62    O717      0.55084      .   S
    C262   O718      0.55436      .   S
    C70    O718      0.55436      .   S
    C262   O719      0.55067      .   S
    C58    O719      0.55067  1_455   S
    C42    O720      0.76646      .   S
    C466   O720      0.76646      .   S
    C42    O721      0.92230      .   S
    C330   O721      0.92230      .   S
    C46    O722      0.76647      .   S
    C470   O722      0.76647      .   S
    C46    O723      0.92261      .   S
    C334   O723      0.92261      .   S
    C44    O724      0.76647      .   S
    C468   O724      0.76647      .   S
    C44    O725      0.92231      .   S
    C332   O725      0.92231      .   S
    C40    O726      0.76647      .   S
    C464   O726      0.76647      .   S
    C40    O727      0.92230      .   S
    C328   O727      0.92230      .   S
    C214   O728      0.54991      .   S
    C334   O728      0.54991      .   S
    C212   O729      0.54983      .   S
    C332   O729      0.54983      .   S
    C210   O730      0.54984      .   S
    C330   O730      0.54984      .   S
    C208   O731      0.54984      .   S
    C328   O731      0.54984      .   S
    C332   O732      0.54990      .   S
    C220   O732      0.54990      .   S
    C332   O733      0.74905      .   S
    C380   O733      0.74905      .   S
    C328   O734      0.54990      .   S
    C216   O734      0.54990      .   S
    C328   O735      0.74905      .   S
    C376   O735      0.74905      .   S
    C330   O736      0.54990      .   S
    C218   O736      0.54990      .   S
    C330   O737      0.74907      .   S
    C378   O737      0.74907      .   S
    C334   O738      0.54971      .   S
    C222   O738      0.54971      .   S
    C334   O739      0.74886      .   S
    C382   O739      0.74886      .   S
    C156   O740      0.57990      .   S
    C382   O740      0.57990  1_565   S
    C152   O741      0.57990      .   S
    C378   O741      0.57990  1_565   S
    C158   O742      0.57950      .   S
    C380   O742      0.57950      .   S
    C154   O743      0.57951      .   S
    C376   O743      0.57951      .   S
    C242   O744      0.54926      .   S
    C346   O744      0.54926      .   S
    C246   O745      0.54352      .   S
    C350   O745      0.54352      .   S
    C244   O746      0.54352      .   S
    C348   O746      0.54352      .   S
    C240   O747      0.54351      .   S
    C344   O747      0.54351      .   S
    C382   O748      0.74479      .   S
    C350   O748      0.74479      .   S
    C382   O749      0.74991  1_565   S
    C340   O749      0.74991      .   S
    C380   O750      0.74479      .   S
    C348   O750      0.74479      .   S
    C380   O751      0.74986      .   S
    C342   O751      0.74986      .   S
    C378   O752      0.74841      .   S
    C346   O752      0.74841      .   S
    C378   O753      0.74991  1_565   S
    C336   O753      0.74991      .   S
    C376   O754      0.74481      .   S
    C344   O754      0.74481      .   S
    C376   O755      0.74986      .   S
    C338   O755      0.74986      .   S
    C234   O756      0.54879      .   S
    C338   O756      0.54879      .   S
    C236   O757      0.54879      .   S
    C340   O757      0.54879      .   S
    C238   O758      0.54879      .   S
    C342   O758      0.54879      .   S
    C232   O759      0.54880      .   S
    C336   O759      0.54880      .   S
    C348   O760      0.55431      .   S
    C253   O760      0.55431      .   S
    C348   O761      0.76329      .   S
    C293   O761      0.76329      .   S
    C350   O762      0.55430      .   S
    C255   O762      0.55430      .   S
    C350   O763      0.76330      .   S
    C295   O763      0.76330      .   S
    C344   O764      0.55431      .   S
    C249   O764      0.55431      .   S
    C344   O765      0.76329      .   S
    C289   O765      0.76329      .   S
    C346   O766      0.55007      .   S
    C251   O766      0.55007      .   S
    C346   O767      0.75837      .   S
    C291   O767      0.75837      .   S
    C120   O768      0.54836      .   S
    C289   O768      0.54836      .   S
    C122   O769      0.54836      .   S
    C291   O769      0.54836      .   S
    C126   O770      0.54836      .   S
    C295   O770      0.54836      .   S
    C124   O771      0.54836      .   S
    C293   O771      0.54836      .   S
    C342   O772      0.54833      .   S
    C231   O772      0.54833      .   S
    C342   O773      0.75831      .   S
    C303   O773      0.75831      .   S
    C340   O774      0.54833      .   S
    C229   O774      0.54833      .   S
    C340   O775      0.75831      .   S
    C301   O775      0.75831      .   S
    C336   O776      0.54833      .   S
    C225   O776      0.54833      .   S
    C336   O777      0.75831      .   S
    C297   O777      0.75831      .   S
    C338   O778      0.54834      .   S
    C227   O778      0.54834      .   S
    C338   O779      0.75832      .   S
    C299   O779      0.75832      .   S
    C148   O780      0.55055      .   S
    C301   O780      0.55055      .   S
    C144   O781      0.55056      .   S
    C297   O781      0.55056      .   S
    C150   O782      0.55007      .   S
    C303   O782      0.55007      .   S
    C146   O783      0.55007      .   S
    C299   O783      0.55007      .   S
    C295   O784      0.54858      .   S
    C135   O784      0.54858      .   S
    C295   O785      0.74991      .   S
    C365   O785      0.74991  1_545   S
    C293   O786      0.54859      .   S
    C133   O786      0.54859      .   S
    C293   O787      0.74985      .   S
    C367   O787      0.74985      .   S
    C291   O788      0.54858      .   S
    C131   O788      0.54858      .   S
    C291   O789      0.74991      .   S
    C361   O789      0.74991  1_545   S
    C289   O790      0.54859      .   S
    C129   O790      0.54859      .   S
    C289   O791      0.74984      .   S
    C363   O791      0.74984      .   S
    C297   O792      0.74846      .   S
    C361   O792      0.74846      .   S
    C297   O793      0.54935      .   S
    C137   O793      0.54935      .   S
    C299   O794      0.74844      .   S
    C363   O794      0.74844      .   S
    C299   O795      0.54927      .   S
    C139   O795      0.54927      .   S
    C303   O796      0.74845      .   S
    C367   O796      0.74845      .   S
    C303   O797      0.54601      .   S
    C143   O797      0.54601      .   S
    C301   O798      0.74847      .   S
    C365   O798      0.74847      .   S
    C301   O799      0.54935      .   S
    C141   O799      0.54935      .   S
    C365   O800      0.57958  1_545   S
    C55    O800      0.57958      .   S
    C365   O801      0.74883      .   S
    C285   O801      0.74883      .   S
    C363   O802      0.57914      .   S
    C49    O802      0.57914      .   S
    C363   O803      0.74884      .   S
    C283   O803      0.74884      .   S
    C367   O804      0.57946      .   S
    C53    O804      0.57946      .   S
    C367   O805      0.74884      .   S
    C287   O805      0.74884      .   S
    C361   O806      0.57957  1_545   S
    C51    O806      0.57957      .   S
    C361   O807      0.74882      .   S
    C281   O807      0.74882      .   S
    C119   O808      0.55412      .   S
    C287   O808      0.55412      .   S
    C117   O809      0.55412      .   S
    C285   O809      0.55412      .   S
    C115   O810      0.54968      .   S
    C283   O810      0.54968      .   S
    C113   O811      0.54968      .   S
    C281   O811      0.54968      .   S
    C287   O812      0.54992      .   S
    C111   O812      0.54992      .   S
    C287   O813      0.92265      .   S
    C31    O813      0.92265      .   S
    C285   O814      0.54992      .   S
    C109   O814      0.54992      .   S
    C285   O815      0.92266      .   S
    C29    O815      0.92266      .   S
    C281   O816      0.54992      .   S
    C105   O816      0.54992      .   S
    C281   O817      0.92267      .   S
    C25    O817      0.92267      .   S
    C283   O818      0.54992      .   S
    C107   O818      0.54992      .   S
    C283   O819      0.92266      .   S
    C27    O819      0.92266      .   S
    C451   O820      0.77318      .   S
    C35    O820      0.77318      .   S
    C449   O821      0.77306      .   S
    C33    O821      0.77306      .   S
    C453   O822      0.77294      .   S
    C37    O822      0.77294      .   S
    C455   O823      0.77296      .   S
    C39    O823      0.77296      .   S
    C163   O824      0.55085      .   S
    C311   O824      0.55085      .   S
    C165   O825      0.55063  1_655   S
    C305   O825      0.55063      .   S
    C167   O826      0.55068  1_655   S
    C307   O826      0.55068      .   S
    C161   O827      0.55038      .   S
    C309   O827      0.55038      .   S
    C173   O828      0.55398      .   S
    C309   O828      0.55398      .   S
    C169   O829      0.55436      .   S
    C305   O829      0.55436      .   S
    C171   O830      0.55437      .   S
    C307   O830      0.55437      .   S
    C175   O831      0.55437      .   S
    C311   O831      0.55437      .   S
    C417   O832      0.76645      .   S
    C25    O832      0.76645      .   S
    C417   O833      1.29591      .   S
    C1     O833      1.29591      .   S
    C419   O834      0.76645      .   S
    C27    O834      0.76645      .   S
    C419   O835      1.29590      .   S
    C3     O835      1.29590      .   S
    C421   O836      0.76645      .   S
    C29    O836      0.76645      .   S
    C421   O837      1.29590      .   S
    C5     O837      1.29590      .   S
    C423   O838      0.76645      .   S
    C31    O838      0.76645      .   S
    C423   O839      1.29590      .   S
    C7     O839      1.29590      .   S
    C29    O840      0.76277      .   S
    C413   O840      0.76277      .   S
    C29    O841      0.77724      .   S
    C429   O841      0.77724      .   S
    C25    O842      0.76277      .   S
    C409   O842      0.76277      .   S
    C25    O843      0.77724      .   S
    C425   O843      0.77724      .   S
    C27    O844      0.76277      .   S
    C411   O844      0.76277      .   S
    C27    O845      0.77724      .   S
    C427   O845      0.77724      .   S
    C31    O846      0.76261      .   S
    C415   O846      0.76261      .   S
    C31    O847      0.77724      .   S
    C431   O847      0.77724      .   S
    C309   O848      0.92057      .   S
    C37    O848      0.92057      .   S
    C309   O849      0.74170      .   S
    C373   O849      0.74170      .   S
    C305   O850      0.92047      .   S
    C33    O850      0.92047      .   S
    C305   O851      0.74115      .   S
    C369   O851      0.74115      .   S
    C311   O852      0.92046      .   S
    C39    O852      0.92046      .   S
    C311   O853      0.74107      .   S
    C375   O853      0.74107      .   S
    C307   O854      0.92047      .   S
    C35    O854      0.92047      .   S
    C307   O855      0.74109      .   S
    C371   O855      0.74109      .   S
    C39    O856      0.76757      .   S
    C439   O856      0.76757      .   S
    C39    O857      0.78283      .   S
    C447   O857      0.78283      .   S
    C37    O858      0.76758      .   S
    C437   O858      0.76758      .   S
    C37    O859      0.78282      .   S
    C445   O859      0.78282      .   S
    C35    O860      0.76754      .   S
    C435   O860      0.76754      .   S
    C35    O861      0.78226      .   S
    C443   O861      0.78226      .   S
    C33    O862      0.76755      .   S
    C433   O862      0.76755      .   S
    C33    O863      0.78279      .   S
    C441   O863      0.78279      .   S
    C195   O864      0.55331      .   S
    C323   O864      0.55331      .   S
    C193   O865      0.55334      .   S
    C321   O865      0.55334      .   S
    C197   O866      0.55334      .   S
    C325   O866      0.55334      .   S
    C199   O867      0.55338      .   S
    C327   O867      0.55338      .   S
    C415   O868      1.22779  1_655   S
    C3     O868      1.22779      .   S
    C409   O869      1.22756      .   S
    C5     O869      1.22756      .   S
    C413   O870      1.22739  1_655   S
    C1     O870      1.22739      .   S
    C411   O871      1.22760      .   S
    C7     O871      1.22760      .   S
    C203   O872      0.54869      .   S
    C323   O872      0.54869      .   S
    C205   O873      0.54872      .   S
    C325   O873      0.54872      .   S
    C201   O874      0.54871      .   S
    C321   O874      0.54871      .   S
    C207   O875      0.54875      .   S
    C327   O875      0.54875      .   S
    C427   O876      1.24027      .   S
    C9     O876      1.24027      .   S
    C425   O877      1.24040  1_545   S
    C11    O877      1.24040      .   S
    C429   O878      1.24040  1_545   S
    C15    O878      1.24040      .   S
    C431   O879      1.24027      .   S
    C13    O879      1.24027      .   S
    C323   O880      0.74383      .   S
    C375   O880      0.74383      .   S
    C323   O881      0.75847      .   S
    C267   O881      0.75847      .   S
    C325   O882      0.74368      .   S
    C369   O882      0.74368  1_455   S
    C325   O883      0.75850      .   S
    C269   O883      0.75850      .   S
    C327   O884      0.74364      .   S
    C371   O884      0.74364  1_455   S
    C327   O885      0.75810      .   S
    C271   O885      0.75810      .   S
    C321   O886      0.74383      .   S
    C373   O886      0.74383      .   S
    C321   O887      0.75850      .   S
    C265   O887      0.75850      .   S
    C439   O888      1.23005      .   S
    C15    O888      1.23005      .   S
    C437   O889      1.23002      .   S
    C13    O889      1.23002      .   S
    C433   O890      1.22995      .   S
    C9     O890      1.22995      .   S
    C435   O891      1.22998      .   S
    C11    O891      1.22998      .   S
    C443   O892      1.27684  1_455   S
    C15    O892      1.27684      .   S
    C441   O893      1.27630  1_455   S
    C13    O893      1.27630      .   S
    C445   O894      1.27647      .   S
    C9     O894      1.27647      .   S
    C447   O895      1.27646      .   S
    C11    O895      1.27646      .   S
    C373   O896      0.74217      .   S
    C317   O896      0.74217      .   S
    C373   O897      1.48380      .   S
    C9     O897      1.48380      .   S
    C369   O898      0.74217      .   S
    C313   O898      0.74217      .   S
    C369   O899      1.48372  1_455   S
    C13    O899      1.48372      .   S
    C375   O900      0.74215      .   S
    C319   O900      0.74215      .   S
    C375   O901      1.48351      .   S
    C11    O901      1.48351      .   S
    C371   O902      0.74215      .   S
    C315   O902      0.74215      .   S
    C371   O903      1.48344  1_455   S
    C15    O903      1.48344      .   S
    C191   O904      0.55412      .   S
    C319   O904      0.55412      .   S
    C185   O905      0.55387      .   S
    C313   O905      0.55387      .   S
    C187   O906      0.55392      .   S
    C315   O906      0.55392      .   S
    C189   O907      0.55386      .   S
    C317   O907      0.55386      .   S
    C1     O908      1.48347      .   S
    C357   O908      1.48347  1_655   S
    C1     O909      1.27651      .   S
    C397   O909      1.27651  1_655   S
    C1     O910      1.22982      .   S
    C385   O910      1.22982      .   S
    C1     O911      1.24044      .   S
    C475   O911      1.24044  1_565   S
    C3     O912      1.48375      .   S
    C359   O912      1.48375  1_655   S
    C3     O913      1.27652      .   S
    C399   O913      1.27652  1_655   S
    C3     O914      1.22978      .   S
    C387   O914      1.22978      .   S
    C3     O915      1.24031      .   S
    C473   O915      1.24031      .   S
    C5     O916      1.48353      .   S
    C353   O916      1.48353      .   S
    C5     O917      1.27668      .   S
    C393   O917      1.27668      .   S
    C5     O918      1.22974      .   S
    C389   O918      1.22974      .   S
    C5     O919      1.24044      .   S
    C479   O919      1.24044  1_565   S
    C7     O920      1.48362      .   S
    C355   O920      1.48362      .   S
    C7     O921      1.27669      .   S
    C395   O921      1.27669      .   S
    C7     O922      1.22970      .   S
    C391   O922      1.22970      .   S
    C7     O923      1.24032      .   S
    C477   O923      1.24032      .   S
    C79    O924      0.54641      .   S
    C271   O924      0.54641      .   S
    C77    O925      0.54657      .   S
    C269   O925      0.54657      .   S
    C75    O926      0.54655      .   S
    C267   O926      0.54655      .   S
    C73    O927      0.54657      .   S
    C265   O927      0.54657      .   S
    C315   O928      0.54657      .   S
    C179   O928      0.54657      .   S
    C315   O929      0.75851      .   S
    C275   O929      0.75851      .   S
    C319   O930      0.54658      .   S
    C183   O930      0.54658      .   S
    C319   O931      0.75851      .   S
    C279   O931      0.75851      .   S
    C317   O932      0.54660      .   S
    C181   O932      0.54660      .   S
    C317   O933      0.75848      .   S
    C277   O933      0.75848      .   S
    C313   O934      0.54659      .   S
    C177   O934      0.54659      .   S
    C313   O935      0.75847      .   S
    C273   O935      0.75847      .   S
    C271   O936      0.55415      .   S
    C87    O936      0.55415      .   S
    C271   O937      0.74241      .   S
    C359   O937      0.74241      .   S
    C267   O938      0.55394      .   S
    C83    O938      0.55394      .   S
    C267   O939      0.74198      .   S
    C355   O939      0.74198      .   S
    C265   O940      0.55385      .   S
    C81    O940      0.55385      .   S
    C265   O941      0.74215      .   S
    C353   O941      0.74215      .   S
    C269   O942      0.55384      .   S
    C85    O942      0.55384      .   S
    C269   O943      0.74214      .   S
    C357   O943      0.74214      .   S
    C11    O944      1.22767      .   S
    C463   O944      1.22767      .   S
    C11    O945      1.29572      .   S
    C467   O945      1.29572      .   S
    C15    O946      1.22750      .   S
    C459   O946      1.22750  1_455   S
    C15    O947      1.29573      .   S
    C471   O947      1.29573      .   S
    C13    O948      1.22754      .   S
    C457   O948      1.22754  1_455   S
    C13    O949      1.29573      .   S
    C469   O949      1.29573      .   S
    C9     O950      1.22771      .   S
    C461   O950      1.22771      .   S
    C9     O951      1.29572      .   S
    C465   O951      1.29572      .   S
    C355   O952      0.74397      .   S
    C279   O952      0.74397      .   S
    C355   O953      0.74145      .   S
    C259   O953      0.74145      .   S
    C357   O954      0.74366  1_655   S
    C273   O954      0.74366      .   S
    C357   O955      0.74112      .   S
    C261   O955      0.74112      .   S
    C353   O956      0.74378      .   S
    C277   O956      0.74378      .   S
    C353   O957      0.74110      .   S
    C257   O957      0.74110      .   S
    C359   O958      0.74369  1_655   S
    C275   O958      0.74369      .   S
    C359   O959      0.74109      .   S
    C263   O959      0.74109      .   S
    C395   O960      0.78281      .   S
    C19    O960      0.78281      .   S
    C399   O961      0.78282      .   S
    C23    O961      0.78282      .   S
    C393   O962      0.78281      .   S
    C17    O962      0.78281      .   S
    C397   O963      0.78283      .   S
    C21    O963      0.78283      .   S
    C389   O964      0.76758      .   S
    C21    O964      0.76758      .   S
    C391   O965      0.76759      .   S
    C23    O965      0.76759      .   S
    C385   O966      0.76755      .   S
    C17    O966      0.76755      .   S
    C387   O967      0.76755      .   S
    C19    O967      0.76755      .   S
    C273   O968      0.54871      .   S
    C97    O968      0.54871      .   S
    C273   O969      0.55336      .   S
    C89    O969      0.55336      .   S
    C275   O970      0.54873      .   S
    C99    O970      0.54873      .   S
    C275   O971      0.55333      .   S
    C91    O971      0.55333      .   S
    C277   O972      0.54825      .   S
    C101   O972      0.54825      .   S
    C277   O973      0.55324      .   S
    C93    O973      0.55324      .   S
    C279   O974      0.54873      .   S
    C103   O974      0.54873      .   S
    C279   O975      0.55334      .   S
    C95    O975      0.55334      .   S
    C473   O976      0.77719      .   S
    C41    O976      0.77719      .   S
    C475   O977      0.77720      .   S
    C43    O977      0.77720      .   S
    C477   O978      0.77719      .   S
    C45    O978      0.77719      .   S
    C479   O979      0.77720      .   S
    C47    O979      0.77720      .   S
    C459   O980      0.76274      .   S
    C43    O980      0.76274      .   S
    C457   O981      0.76275      .   S
    C41    O981      0.76275      .   S
    C461   O982      0.76275      .   S
    C45    O982      0.76275      .   S
    C463   O983      0.76274      .   S
    C47    O983      0.76274      .   S
    C21    O984      0.92049      .   S
    C261   O984      0.92049      .   S
    C21    O985      0.77290      .   S
    C405   O985      0.77290      .   S
    C23    O986      0.92047      .   S
    C263   O986      0.92047      .   S
    C23    O987      0.77289      .   S
    C407   O987      0.77289      .   S
    C19    O988      0.92047      .   S
    C259   O988      0.92047      .   S
    C19    O989      0.77300      .   S
    C403   O989      0.77300      .   S
    C17    O990      0.92049      .   S
    C257   O990      0.92049      .   S
    C17    O991      0.77215      .   S
    C401   O991      0.77215      .   S
    C259   O992      0.55385      .   S
    C67    O992      0.55385      .   S
    C259   O993      0.55087      .   S
    C63    O993      0.55087      .   S
    C257   O994      0.55435      .   S
    C65    O994      0.55435      .   S
    C257   O995      0.55043      .   S
    C61    O995      0.55043      .   S
    C261   O996      0.55436      .   S
    C69    O996      0.55436      .   S
    C261   O997      0.55026      .   S
    C57    O997      0.55026  1_455   S
    C263   O998      0.55435      .   S
    C71    O998      0.55435      .   S
    C263   O999      0.55069      .   S
    C59    O999      0.55069  1_455   S
    C47    O1000     0.76647      .   S
    C471   O1000     0.76647      .   S
    C47    O1001     0.92271      .   S
    C335   O1001     0.92271      .   S
    C41    O1002     0.76647      .   S
    C465   O1002     0.76647      .   S
    C41    O1003     0.92270      .   S
    C329   O1003     0.92270      .   S
    C43    O1004     0.76647      .   S
    C467   O1004     0.76647      .   S
    C43    O1005     0.92270      .   S
    C331   O1005     0.92270      .   S
    C45    O1006     0.76647      .   S
    C469   O1006     0.76647      .   S
    C45    O1007     0.92271      .   S
    C333   O1007     0.92271      .   S
    C213   O1008     0.54996      .   S
    C333   O1008     0.54996      .   S
    C215   O1009     0.54997      .   S
    C335   O1009     0.54997      .   S
    C211   O1010     0.54991      .   S
    C331   O1010     0.54991      .   S
    C209   O1011     0.54992      .   S
    C329   O1011     0.54992      .   S
    C329   O1012     0.54970      .   S
    C217   O1012     0.54970      .   S
    C329   O1013     0.74880      .   S
    C377   O1013     0.74880      .   S
    C331   O1014     0.54971      .   S
    C219   O1014     0.54971      .   S
    C331   O1015     0.74879      .   S
    C379   O1015     0.74879      .   S
    C333   O1016     0.54971      .   S
    C221   O1016     0.54971      .   S
    C333   O1017     0.74879      .   S
    C381   O1017     0.74879      .   S
    C335   O1018     0.54971      .   S
    C223   O1018     0.54971      .   S
    C335   O1019     0.74878      .   S
    C383   O1019     0.74878      .   S
    C153   O1020     0.57961      .   S
    C379   O1020     0.57961  1_565   S
    C155   O1021     0.57949      .   S
    C377   O1021     0.57949      .   S
    C157   O1022     0.57960      .   S
    C383   O1022     0.57960  1_565   S
    C159   O1023     0.57949      .   S
    C381   O1023     0.57949      .   S
    C243   O1024     0.54934      .   S
    C347   O1024     0.54934      .   S
    C241   O1025     0.54935      .   S
    C345   O1025     0.54935      .   S
    C247   O1026     0.54935      .   S
    C351   O1026     0.54935      .   S
    C245   O1027     0.54935      .   S
    C349   O1027     0.54935      .   S
    C377   O1028     0.74846      .   S
    C345   O1028     0.74846      .   S
    C377   O1029     0.74986      .   S
    C339   O1029     0.74986      .   S
    C379   O1030     0.74848      .   S
    C347   O1030     0.74848      .   S
    C379   O1031     0.74993  1_565   S
    C337   O1031     0.74993      .   S
    C381   O1032     0.74845      .   S
    C349   O1032     0.74845      .   S
    C381   O1033     0.74986      .   S
    C343   O1033     0.74986      .   S
    C383   O1034     0.74847      .   S
    C351   O1034     0.74847      .   S
    C383   O1035     0.74992  1_565   S
    C341   O1035     0.74992      .   S
    C239   O1036     0.54879      .   S
    C343   O1036     0.54879      .   S
    C237   O1037     0.54879      .   S
    C341   O1037     0.54879      .   S
    C235   O1038     0.54878      .   S
    C339   O1038     0.54878      .   S
    C233   O1039     0.54878      .   S
    C337   O1039     0.54878      .   S
    C392   O1040     1.30144  1_545   S
    C10    O1040     1.30144      .   S
    C393   O1041     1.30149  1_545   S
    C11    O1041     1.30149      .   S
    C394   O1042     1.30135      .   S
    C8     O1042     1.30135      .   S
    C395   O1043     1.30131      .   S
    C9     O1043     1.30131      .   S
    C396   O1044     1.30142  1_545   S
    C14    O1044     1.30142      .   S
    C397   O1045     1.30146  1_545   S
    C15    O1045     1.30146      .   S
    C398   O1046     1.30133      .   S
    C12    O1046     1.30133      .   S
    C399   O1047     1.30130      .   S
    C13    O1047     1.30130      .   S
    C424   O1048     1.29395      .   S
    C0     O1048     1.29395      .   S
    C425   O1049     1.29399      .   S
    C1     O1049     1.29399      .   S
    C426   O1050     1.29405      .   S
    C2     O1050     1.29405      .   S
    C427   O1051     1.29394      .   S
    C3     O1051     1.29394      .   S
    C428   O1052     1.29394      .   S
    C4     O1052     1.29394      .   S
    C429   O1053     1.29399      .   S
    C5     O1053     1.29399      .   S
    C430   O1054     1.29405      .   S
    C6     O1054     1.29405      .   S
    C431   O1055     1.29393      .   S
    C7     O1055     1.29393      .   S
    C440   O1056     1.30129      .   S
    C2     O1056     1.30129      .   S
    C441   O1057     1.30121      .   S
    C3     O1057     1.30121      .   S
    C442   O1058     1.30134  1_565   S
    C0     O1058     1.30134      .   S
    C443   O1059     1.30175  1_565   S
    C1     O1059     1.30175      .   S
    C444   O1060     1.30164      .   S
    C6     O1060     1.30164      .   S
    C445   O1061     1.30123      .   S
    C7     O1061     1.30123      .   S
    C446   O1062     1.30131  1_565   S
    C4     O1062     1.30131      .   S
    C447   O1063     1.30139  1_565   S
    C5     O1063     1.30139      .   S
    C472   O1064     1.29406      .   S
    C8     O1064     1.29406      .   S
    C473   O1065     1.29402      .   S
    C9     O1065     1.29402      .   S
    C474   O1066     1.29384      .   S
    C10    O1066     1.29384      .   S
    C475   O1067     1.29407      .   S
    C11    O1067     1.29407      .   S
    C476   O1068     1.29392      .   S
    C12    O1068     1.29392      .   S
    C477   O1069     1.29402      .   S
    C13    O1069     1.29402      .   S
    C478   O1070     1.29385      .   S
    C14    O1070     1.29385      .   S
    C479   O1071     1.29408      .   S
    C15    O1071     1.29408      .   S
