# CIF file generated by openbabel 2.4.90, see http://openbabel.sf.net
data_I
_chemical_name_common ''
_cell_length_a 11.706
_cell_length_b 20.742
_cell_length_c 23.396
_cell_angle_alpha 86.75
_cell_angle_beta 87.624
_cell_angle_gamma 83.614
_space_group_name_H-M_alt 'P 1'
_space_group_name_Hall 'P 1'
loop_
    _symmetry_equiv_pos_as_xyz
    x,y,z
loop_
    _atom_site_label
    _atom_site_type_symbol
    _atom_site_fract_x
    _atom_site_fract_y
    _atom_site_fract_z
    _atom_site_occupancy
    Zr0     Zr   0.11065   0.07129   0.23551   1.000
    Zr1     Zr   0.11065   0.07129   0.73552   1.000
    Zr2     Zr   0.11064   0.57129   0.23552   1.000
    Zr3     Zr   0.11065   0.57128   0.73552   1.000
    Zr4     Zr   0.61067   0.07129   0.23551   1.000
    Zr5     Zr   0.61067   0.07129   0.73552   1.000
    Zr6     Zr   0.61066   0.57129   0.23552   1.000
    Zr7     Zr   0.61067   0.57128   0.73552   1.000
    Zr8     Zr   0.38931   0.42870   0.26448   1.000
    Zr9     Zr   0.38931   0.42870   0.76448   1.000
    Zr10    Zr   0.38930   0.92870   0.26448   1.000
    Zr11    Zr   0.38932   0.92869   0.76448   1.000
    Zr12    Zr   0.88933   0.42870   0.26448   1.000
    Zr13    Zr   0.88933   0.42870   0.76448   1.000
    Zr14    Zr   0.88932   0.92870   0.26448   1.000
    Zr15    Zr   0.88934   0.92869   0.76448   1.000
    N16     N    0.15627   0.42294   0.13816   1.000
    N17     N    0.84356   0.07709   0.36183   1.000
    O18     O    0.28822   0.39695   0.21752   1.000
    O19     O    0.98215   0.04749   0.28218   1.000
    O20     O    0.92681   0.01184   0.28943   1.000
    O21     O    0.71178   0.10305   0.28242   1.000
    O22     O    0.07316   0.48815   0.21059   1.000
    O23     O    0.01783   0.45250   0.21783   1.000
    O24     O    0.93486   0.17537   0.29905   1.000
    O25     O    0.02415   0.19004   0.25511   1.000
    O26     O    0.97583   0.30995   0.24489   1.000
    N27     N    0.16032   0.92522   0.84266   1.000
    N28     N    0.33965   0.07476   0.15734   1.000
    O29     O    0.48968   0.09472   0.18806   1.000
    O30     O    0.24241   0.96953   0.79310   1.000
    O31     O    0.17275   0.00518   0.78586   1.000
    O32     O    0.01031   0.90525   0.81193   1.000
    O33     O    0.20001   0.10938   0.17308   1.000
    O34     O    0.25755   0.03046   0.20690   1.000
    O35     O    0.32721   0.99481   0.21414   1.000
    O36     O    0.29998   0.89060   0.82691   1.000
    O37     O    0.30066   0.03292   0.07007   1.000
    N38     N    0.16033   0.42523   0.84266   1.000
    N39     N    0.33965   0.57475   0.15734   1.000
    O40     O    0.01031   0.40526   0.81193   1.000
    O41     O    0.29998   0.39061   0.82691   1.000
    O42     O    0.20000   0.60937   0.17308   1.000
    O43     O    0.25754   0.53045   0.20690   1.000
    O44     O    0.32721   0.49480   0.21414   1.000
    O45     O    0.24241   0.46953   0.79310   1.000
    O46     O    0.17275   0.50518   0.78586   1.000
    O47     O    0.48968   0.59472   0.18806   1.000
    O48     O    0.19932   0.46706   0.92993   1.000
    N49     N    0.83967   0.57475   0.65734   1.000
    N50     N    0.66034   0.42523   0.34266   1.000
    O51     O    0.51031   0.40526   0.31193   1.000
    O52     O    0.98969   0.59471   0.68803   1.000
    O53     O    0.70003   0.60937   0.67308   1.000
    O54     O    0.82723   0.49480   0.71415   1.000
    O55     O    0.75757   0.53045   0.70691   1.000
    O56     O    0.74243   0.46954   0.29307   1.000
    O57     O    0.67276   0.50518   0.28583   1.000
    O58     O    0.79999   0.39062   0.32691   1.000
    O59     O    0.69933   0.46706   0.42988   1.000
    N60     N    0.83966   0.57475   0.15734   1.000
    N61     N    0.66034   0.42523   0.84266   1.000
    O62     O    0.74243   0.46953   0.79310   1.000
    O63     O    0.67277   0.50518   0.78586   1.000
    O64     O    0.70002   0.60937   0.17308   1.000
    O65     O    0.82723   0.49480   0.21414   1.000
    O66     O    0.75756   0.53045   0.20690   1.000
    O67     O    0.98969   0.59472   0.18806   1.000
    O68     O    0.51032   0.40526   0.81193   1.000
    O69     O    0.80000   0.39061   0.82691   1.000
    O70     O    0.80067   0.53292   0.07007   1.000
    N71     N    0.66034   0.92523   0.34266   1.000
    N72     N    0.83967   0.07475   0.65734   1.000
    O73     O    0.67276   0.00518   0.28583   1.000
    O74     O    0.74242   0.96953   0.29307   1.000
    O75     O    0.51031   0.90526   0.31193   1.000
    O76     O    0.82724   0.99480   0.71415   1.000
    O77     O    0.75757   0.03045   0.70691   1.000
    O78     O    0.70003   0.10938   0.67308   1.000
    O79     O    0.98970   0.09472   0.68807   1.000
    O80     O    0.79999   0.89061   0.32691   1.000
    O81     O    0.69933   0.96705   0.42989   1.000
    N82     N    0.33966   0.07475   0.65734   1.000
    N83     N    0.16032   0.92523   0.34266   1.000
    O84     O    0.48969   0.09472   0.68807   1.000
    O85     O    0.01030   0.90526   0.31193   1.000
    O86     O    0.29997   0.89061   0.32691   1.000
    O87     O    0.17274   0.00518   0.28583   1.000
    O88     O    0.24241   0.96953   0.29307   1.000
    O89     O    0.32722   0.99480   0.71415   1.000
    O90     O    0.25755   0.03045   0.70691   1.000
    O91     O    0.20001   0.10938   0.67308   1.000
    O92     O    0.30066   0.03292   0.57007   1.000
    N93     N    0.65627   0.92294   0.13816   1.000
    N94     N    0.34356   0.57708   0.36183   1.000
    O95     O    0.21176   0.60305   0.28243   1.000
    O96     O    0.42680   0.51184   0.28943   1.000
    O97     O    0.48213   0.54748   0.28219   1.000
    O98     O    0.57317   0.98814   0.21060   1.000
    O99     O    0.51783   0.95250   0.21784   1.000
    O100    O    0.78823   0.89695   0.21752   1.000
    O101    O    0.52415   0.69003   0.25511   1.000
    O102    O    0.47583   0.80994   0.24489   1.000
    O103    O    0.56508   0.82463   0.20093   1.000
    N104    N    0.84356   0.57709   0.36183   1.000
    N105    N    0.15627   0.92294   0.13816   1.000
    O106    O    0.07315   0.98814   0.21059   1.000
    O107    O    0.01782   0.95250   0.21783   1.000
    O108    O    0.28821   0.89695   0.21752   1.000
    O109    O    0.71178   0.60305   0.28243   1.000
    O110    O    0.98214   0.54748   0.28219   1.000
    O111    O    0.92681   0.51184   0.28943   1.000
    O112    O    0.02415   0.69003   0.25511   1.000
    O113    O    0.93486   0.67536   0.29906   1.000
    O114    O    0.97583   0.80994   0.24489   1.000
    N115    N    0.84357   0.07709   0.86183   1.000
    N116    N    0.15628   0.42294   0.63816   1.000
    O117    O    0.71179   0.10305   0.78243   1.000
    O118    O    0.28822   0.39695   0.71753   1.000
    O119    O    0.92682   0.01184   0.78943   1.000
    O120    O    0.98215   0.04748   0.78219   1.000
    O121    O    0.01783   0.45250   0.71784   1.000
    O122    O    0.07316   0.48814   0.71060   1.000
    O123    O    0.97584   0.30994   0.74489   1.000
    O124    O    0.02416   0.19003   0.75512   1.000
    O125    O    0.93487   0.17536   0.79907   1.000
    N126    N    0.66034   0.92522   0.84266   1.000
    N127    N    0.83967   0.07476   0.15734   1.000
    O128    O    0.74243   0.96953   0.79310   1.000
    O129    O    0.67276   0.00518   0.78586   1.000
    O130    O    0.98969   0.09472   0.18806   1.000
    O131    O    0.75756   0.03046   0.20690   1.000
    O132    O    0.82723   0.99481   0.21414   1.000
    O133    O    0.70003   0.10938   0.17308   1.000
    O134    O    0.51032   0.90525   0.81193   1.000
    O135    O    0.79999   0.89060   0.82691   1.000
    O136    O    0.80067   0.03292   0.07007   1.000
    N137    N    0.65627   0.42294   0.13816   1.000
    N138    N    0.34356   0.07709   0.36183   1.000
    O139    O    0.48214   0.04749   0.28218   1.000
    O140    O    0.42680   0.01184   0.28943   1.000
    O141    O    0.21176   0.10305   0.28242   1.000
    O142    O    0.51784   0.45250   0.21777   1.000
    O143    O    0.57317   0.48815   0.21053   1.000
    O144    O    0.78823   0.39695   0.21752   1.000
    O145    O    0.47583   0.30995   0.24489   1.000
    O146    O    0.52415   0.19004   0.25511   1.000
    O147    O    0.43486   0.17536   0.29906   1.000
    N148    N    0.16032   0.42523   0.34266   1.000
    N149    N    0.33965   0.57475   0.65734   1.000
    O150    O    0.29997   0.39061   0.32691   1.000
    O151    O    0.20001   0.60937   0.67308   1.000
    O152    O    0.32721   0.49480   0.71415   1.000
    O153    O    0.25755   0.53045   0.70691   1.000
    O154    O    0.17274   0.50518   0.28586   1.000
    O155    O    0.24241   0.46954   0.29310   1.000
    O156    O    0.48968   0.59471   0.68807   1.000
    O157    O    0.01031   0.40526   0.31193   1.000
    O158    O    0.19932   0.46706   0.42991   1.000
    N159    N    0.84357   0.57708   0.86183   1.000
    N160    N    0.15628   0.92293   0.63816   1.000
    O161    O    0.71178   0.60304   0.78243   1.000
    O162    O    0.01783   0.95249   0.71777   1.000
    O163    O    0.07316   0.98814   0.71053   1.000
    O164    O    0.28822   0.89694   0.71753   1.000
    O165    O    0.92682   0.51183   0.78943   1.000
    O166    O    0.98215   0.54748   0.78219   1.000
    O167    O    0.97583   0.80994   0.74490   1.000
    O168    O    0.02415   0.69003   0.75512   1.000
    O169    O    0.93487   0.67535   0.79907   1.000
    N170    N    0.34357   0.07708   0.86180   1.000
    N171    N    0.65628   0.42294   0.63816   1.000
    O172    O    0.51784   0.45250   0.71784   1.000
    O173    O    0.57318   0.48814   0.71060   1.000
    O174    O    0.21177   0.10305   0.78243   1.000
    O175    O    0.78824   0.39695   0.71752   1.000
    O176    O    0.42680   0.01184   0.78943   1.000
    O177    O    0.48214   0.04749   0.78219   1.000
    O178    O    0.47584   0.30994   0.74489   1.000
    O179    O    0.52416   0.19003   0.75511   1.000
    O180    O    0.43486   0.17536   0.79905   1.000
    N181    N    0.34356   0.57707   0.86184   1.000
    N182    N    0.65628   0.92293   0.63816   1.000
    O183    O    0.21176   0.60304   0.78243   1.000
    O184    O    0.51784   0.95249   0.71784   1.000
    O185    O    0.57318   0.98814   0.71060   1.000
    O186    O    0.78824   0.89694   0.71752   1.000
    O187    O    0.42680   0.51183   0.78943   1.000
    O188    O    0.48214   0.54748   0.78219   1.000
    O189    O    0.47583   0.80994   0.74489   1.000
    O190    O    0.52416   0.69003   0.75511   1.000
    O191    O    0.43486   0.67535   0.79906   1.000
loop_
    _geom_bond_atom_site_label_1
    _geom_bond_atom_site_label_2
    _geom_bond_distance
    _geom_bond_site_symmetry_2
    _ccdc_geom_bond_type
    N16    O18       2.46239      .   S
    Zr8    O18       1.84508      .   S
    N17    O19       2.47755      .   S
    Zr0    O19       1.91487  1_455   S
    N17    O20       2.34099      .   S
    Zr14   O20       1.95213  1_565   S
    N17    O21       2.46174      .   S
    Zr4    O21       1.84467      .   S
    N16    O22       2.34060      .   S
    Zr2    O22       1.95194      .   S
    N16    O23       2.47691      .   S
    Zr12   O23       1.91453  1_655   S
    N16    O24       6.87148  1_455   S
    N17    O24       2.73306      .   S
    N16    O25       5.74690      .   S
    Zr0    O25       2.61496      .   S
    N16    O26       4.02366  1_455   S
    Zr12   O26       2.61478      .   S
    N28    O29       2.01808      .   S
    Zr4    O29       1.84140      .   S
    N27    O30       1.75944      .   S
    Zr11   O30       1.94110      .   S
    N27    O31       2.07972  1_565   S
    Zr1    O31       1.86066      .   S
    N27    O32       2.01804      .   S
    Zr15   O32       1.84125  1_655   S
    N28    O33       1.74422      .   S
    Zr0    O33       1.94375      .   S
    N28    O34       1.75945      .   S
    Zr0    O34       1.94092      .   S
    N28    O35       2.07963  1_545   S
    Zr10   O35       1.86062      .   S
    N27    O36       1.74433      .   S
    Zr11   O36       1.94358      .   S
    N27    O37       6.23584  1_566   S
    N28    O37       2.34442      .   S
    N38    O40       2.01806      .   S
    Zr13   O40       1.84130  1_655   S
    N38    O41       1.74431      .   S
    Zr9    O41       1.94358      .   S
    N39    O42       1.74428      .   S
    Zr2    O42       1.94386      .   S
    N39    O43       1.75948      .   S
    Zr2    O43       1.94107      .   S
    N39    O44       2.07959      .   S
    Zr8    O44       1.86059      .   S
    N38    O45       1.75943      .   S
    Zr9    O45       1.94103      .   S
    N38    O46       2.07963      .   S
    Zr3    O46       1.86047      .   S
    N39    O47       2.01809      .   S
    Zr6    O47       1.84144      .   S
    N39    O48       6.23582  1_554   S
    N38    O48       2.34428      .   S
    N50    O51       2.01815      .   S
    Zr8    O51       1.84151      .   S
    N49    O52       2.01774      .   S
    Zr3    O52       1.84168  1_455   S
    N49    O53       1.74422      .   S
    Zr7    O53       1.94385      .   S
    N49    O54       2.07966      .   S
    Zr13   O54       1.86041      .   S
    N49    O55       1.75957      .   S
    Zr7    O55       1.94090      .   S
    N50    O56       1.75985      .   S
    Zr12   O56       1.94088      .   S
    N50    O57       2.08007      .   S
    Zr6    O57       1.86013      .   S
    N50    O58       1.74434      .   S
    Zr12   O58       1.94358      .   S
    N49    O59       6.23673      .   S
    N50    O59       2.34331      .   S
    N61    O62       1.75943      .   S
    Zr13   O62       1.94103      .   S
    N61    O63       2.07964      .   S
    Zr7    O63       1.86047      .   S
    N60    O64       1.74427      .   S
    Zr6    O64       1.94386      .   S
    N60    O65       2.07960      .   S
    Zr12   O65       1.86058      .   S
    N60    O66       1.75948      .   S
    Zr6    O66       1.94107      .   S
    N60    O67       2.01801      .   S
    Zr2    O67       1.84119  1_455   S
    N61    O68       2.01815      .   S
    Zr9    O68       1.84156      .   S
    N61    O69       1.74432      .   S
    Zr13   O69       1.94359      .   S
    N61    O70       6.23569  1_556   S
    N60    O70       2.34440      .   S
    N71    O73       2.08012  1_565   S
    Zr4    O73       1.86028      .   S
    N71    O74       1.75985      .   S
    Zr14   O74       1.94077      .   S
    N71    O75       2.01815      .   S
    Zr10   O75       1.84157      .   S
    N72    O76       2.07975  1_545   S
    Zr15   O76       1.86060      .   S
    N72    O77       1.75958      .   S
    Zr5    O77       1.94098      .   S
    N72    O78       1.74425      .   S
    Zr5    O78       1.94386      .   S
    N72    O79       2.01808      .   S
    Zr1    O79       1.84108  1_455   S
    N71    O80       1.74430      .   S
    Zr14   O80       1.94359      .   S
    N72    O81       6.23664  1_545   S
    N71    O81       2.34357      .   S
    N82    O84       2.01817      .   S
    Zr5    O84       1.84134      .   S
    N83    O85       2.01807      .   S
    Zr14   O85       1.84132  1_655   S
    N83    O86       1.74429      .   S
    Zr10   O86       1.94359      .   S
    N83    O87       2.08013  1_565   S
    Zr0    O87       1.86026      .   S
    N83    O88       1.75986      .   S
    Zr10   O88       1.94076      .   S
    N82    O89       2.07975  1_545   S
    Zr11   O89       1.86061      .   S
    N82    O90       1.75959      .   S
    Zr1    O90       1.94099      .   S
    N82    O91       1.74426      .   S
    Zr1    O91       1.94386      .   S
    N83    O92       6.23576  1_565   S
    N82    O92       2.34446      .   S
    N94    O95       2.46181      .   S
    Zr2    O95       1.84462      .   S
    N94    O96       2.34093      .   S
    Zr8    O96       1.95202      .   S
    N94    O97       2.47743      .   S
    Zr6    O97       1.91502      .   S
    N93    O98       2.34058      .   S
    Zr4    O98       1.95196  1_545   S
    N93    O99       2.47702      .   S
    Zr10   O99       1.91471      .   S
    N93    O100      2.46251      .   S
    Zr14   O100      1.84501      .   S
    N94    O101      4.02399      .   S
    Zr6    O101      2.61473      .   S
    N94    O102      5.74671      .   S
    Zr10   O102      2.61506      .   S
    N94    O103      6.87163      .   S
    N93    O103      2.73301      .   S
    N105   O106      2.34053      .   S
    Zr0    O106      1.95201  1_545   S
    N105   O107      2.47694      .   S
    Zr14   O107      1.91454  1_655   S
    N105   O108      2.46240      .   S
    Zr10   O108      1.84501      .   S
    N104   O109      2.46169      .   S
    Zr6    O109      1.84463      .   S
    N104   O110      2.47748      .   S
    Zr2    O110      1.91478  1_455   S
    N104   O111      2.34101      .   S
    Zr12   O111      1.95200      .   S
    N105   O112      5.74705      .   S
    Zr2    O112      2.61469      .   S
    N105   O113      6.87159  1_455   S
    N104   O113      2.73296      .   S
    N105   O114      4.02373  1_455   S
    Zr14   O114      2.61502      .   S
    N115   O117      2.46181      .   S
    Zr5    O117      1.84461      .   S
    N116   O118      2.46242      .   S
    Zr9    O118      1.84492      .   S
    N115   O119      2.34109      .   S
    Zr15   O119      1.95219  1_565   S
    N115   O120      2.47754      .   S
    Zr1    O120      1.91477  1_455   S
    N116   O121      2.47700      .   S
    Zr13   O121      1.91445  1_655   S
    N116   O122      2.34064      .   S
    Zr3    O122      1.95181      .   S
    N116   O123      4.02374  1_455   S
    Zr13   O123      2.61498      .   S
    N116   O124      5.74703      .   S
    Zr1    O124      2.61472      .   S
    N116   O125      6.87162  1_455   S
    N115   O125      2.73292      .   S
    N126   O128      1.75944      .   S
    Zr15   O128      1.94111      .   S
    N126   O129      2.07972  1_565   S
    Zr5    O129      1.86066      .   S
    N127   O130      2.01799      .   S
    Zr0    O130      1.84114  1_455   S
    N127   O131      1.75944      .   S
    Zr4    O131      1.94091      .   S
    N127   O132      2.07962  1_545   S
    Zr14   O132      1.86062      .   S
    N127   O133      1.74421      .   S
    Zr4    O133      1.94374      .   S
    N126   O134      2.01813      .   S
    Zr11   O134      1.84151      .   S
    N126   O135      1.74434      .   S
    Zr15   O135      1.94359      .   S
    N126   O136      6.23579  1_566   S
    N127   O136      2.34446      .   S
    N138   O139      2.47750      .   S
    Zr4    O139      1.91512      .   S
    N138   O140      2.34091      .   S
    Zr10   O140      1.95216  1_565   S
    N138   O141      2.46186      .   S
    Zr0    O141      1.84467      .   S
    N137   O142      2.47582      .   S
    Zr8    O142      1.91552      .   S
    N137   O143      2.33948      .   S
    Zr6    O143      1.95246      .   S
    N137   O144      2.46251      .   S
    Zr12   O144      1.84508      .   S
    N137   O145      4.02375      .   S
    Zr8    O145      2.61479      .   S
    N137   O146      5.74695      .   S
    Zr4    O146      2.61502      .   S
    N137   O147      6.87164      .   S
    N138   O147      2.73302      .   S
    N148   O150      1.74434      .   S
    Zr8    O150      1.94358      .   S
    N149   O151      1.74423      .   S
    Zr3    O151      1.94385      .   S
    N149   O152      2.07968      .   S
    Zr9    O152      1.86041      .   S
    N149   O153      1.75959      .   S
    Zr3    O153      1.94091      .   S
    N148   O154      2.07965      .   S
    Zr2    O154      1.86055      .   S
    N148   O155      1.75942      .   S
    Zr8    O155      1.94110      .   S
    N149   O156      2.01818      .   S
    Zr7    O156      1.84140      .   S
    N148   O157      2.01805      .   S
    Zr12   O157      1.84126  1_655   S
    N149   O158      6.23623      .   S
    N148   O158      2.34383      .   S
    N159   O161      2.46182      .   S
    Zr7    O161      1.84455      .   S
    N160   O162      2.47591      .   S
    Zr15   O162      1.91527  1_655   S
    N160   O163      2.33963      .   S
    Zr1    O163      1.95263  1_545   S
    N160   O164      2.46249      .   S
    Zr11   O164      1.84496      .   S
    N159   O165      2.34100      .   S
    Zr13   O165      1.95194      .   S
    N159   O166      2.47755      .   S
    Zr3    O166      1.91478  1_455   S
    N160   O167      4.02380  1_455   S
    Zr15   O167      2.61477      .   S
    N160   O168      5.74702      .   S
    Zr3    O168      2.61491      .   S
    N160   O169      6.87167  1_455   S
    N159   O169      2.73294      .   S
    N171   O172      2.47704      .   S
    Zr9    O172      1.91470      .   S
    N171   O173      2.34063      .   S
    Zr7    O173      1.95185      .   S
    N170   O174      2.46116      .   S
    Zr1    O174      1.84473      .   S
    N171   O175      2.46249      .   S
    Zr13   O175      1.84503      .   S
    N170   O176      2.34039      .   S
    Zr11   O176      1.95223  1_565   S
    N170   O177      2.47688      .   S
    Zr5    O177      1.91502      .   S
    N171   O178      4.02382      .   S
    Zr9    O178      2.61505      .   S
    N171   O179      5.74711      .   S
    Zr5    O179      2.61474      .   S
    N171   O180      6.87162      .   S
    N170   O180      2.73270      .   S
    N181   O183      2.46188      .   S
    Zr3    O183      1.84467      .   S
    N182   O184      2.47704      .   S
    Zr11   O184      1.91469      .   S
    N182   O185      2.34072      .   S
    Zr5    O185      1.95209  1_545   S
    N182   O186      2.46247      .   S
    Zr15   O186      1.84508      .   S
    N181   O187      2.34101      .   S
    Zr9    O187      1.95196      .   S
    N181   O188      2.47760      .   S
    Zr7    O188      1.91504      .   S
    N182   O189      4.02381      .   S
    Zr11   O189      2.61483      .   S
    N182   O190      5.74695      .   S
    Zr7    O190      2.61489      .   S
    N182   O191      6.87173      .   S
    N181   O191      2.73304      .   S
