# CIF file generated by openbabel 2.4.90, see http://openbabel.sf.net
data_I
_chemical_name_common ''
_cell_length_a 11.706
_cell_length_b 20.742
_cell_length_c 23.396
_cell_angle_alpha 86.75
_cell_angle_beta 87.624
_cell_angle_gamma 83.614
_space_group_name_H-M_alt 'P 1'
_space_group_name_Hall 'P 1'
loop_
    _symmetry_equiv_pos_as_xyz
    x,y,z
loop_
    _atom_site_label
    _atom_site_type_symbol
    _atom_site_fract_x
    _atom_site_fract_y
    _atom_site_fract_z
    _atom_site_occupancy
    N0      N    0.15627   0.42294   0.13816   1.000
    N1      N    0.84356   0.07709   0.36183   1.000
    O2      O    0.93486   0.17537   0.29905   1.000
    N3      N    0.16032   0.92522   0.84266   1.000
    N4      N    0.33965   0.07476   0.15734   1.000
    O5      O    0.30066   0.03292   0.07007   1.000
    N6      N    0.16033   0.42523   0.84266   1.000
    N7      N    0.33965   0.57475   0.15734   1.000
    O8      O    0.19932   0.46706   0.92993   1.000
    N9      N    0.83967   0.57475   0.65734   1.000
    N10     N    0.66034   0.42523   0.34266   1.000
    O11     O    0.69933   0.46706   0.42988   1.000
    N12     N    0.83966   0.57475   0.15734   1.000
    N13     N    0.66034   0.42523   0.84266   1.000
    O14     O    0.80067   0.53292   0.07007   1.000
    N15     N    0.66034   0.92523   0.34266   1.000
    N16     N    0.83967   0.07475   0.65734   1.000
    O17     O    0.69933   0.96705   0.42989   1.000
    N18     N    0.33966   0.07475   0.65734   1.000
    N19     N    0.16032   0.92523   0.34266   1.000
    O20     O    0.30066   0.03292   0.57007   1.000
    N21     N    0.65627   0.92294   0.13816   1.000
    N22     N    0.34356   0.57708   0.36183   1.000
    O23     O    0.56508   0.82463   0.20093   1.000
    N24     N    0.84356   0.57709   0.36183   1.000
    N25     N    0.15627   0.92294   0.13816   1.000
    O26     O    0.93486   0.67536   0.29906   1.000
    N27     N    0.84357   0.07709   0.86183   1.000
    N28     N    0.15628   0.42294   0.63816   1.000
    O29     O    0.93487   0.17536   0.79907   1.000
    N30     N    0.66034   0.92522   0.84266   1.000
    N31     N    0.83967   0.07476   0.15734   1.000
    O32     O    0.80067   0.03292   0.07007   1.000
    N33     N    0.65627   0.42294   0.13816   1.000
    N34     N    0.34356   0.07709   0.36183   1.000
    O35     O    0.43486   0.17536   0.29906   1.000
    N36     N    0.16032   0.42523   0.34266   1.000
    N37     N    0.33965   0.57475   0.65734   1.000
    O38     O    0.19932   0.46706   0.42991   1.000
    N39     N    0.84357   0.57708   0.86183   1.000
    N40     N    0.15628   0.92293   0.63816   1.000
    O41     O    0.93487   0.67535   0.79907   1.000
    N42     N    0.34357   0.07708   0.86180   1.000
    N43     N    0.65628   0.42294   0.63816   1.000
    O44     O    0.43486   0.17536   0.79905   1.000
    N45     N    0.34356   0.57707   0.86184   1.000
    N46     N    0.65628   0.92293   0.63816   1.000
    O47     O    0.43486   0.67535   0.79906   1.000
    Zr48    Zr   0.11064   0.57129   0.23552   1.000
    O49     O    0.14169   0.53823   0.26069   1.000
    O50     O    0.16120   0.58717   0.25897   1.000
    O51     O    0.04639   0.55938   0.25885   1.000
    O52     O    0.18409   0.55087   0.22121   1.000
    O53     O    0.06739   0.63066   0.24531   1.000
    O54     O    0.05016   0.58300   0.21179   1.000
    O55     O    0.15532   0.59033   0.20430   1.000
    O56     O    0.09190   0.52972   0.22306   1.000
    Zr57    Zr   0.38931   0.42870   0.26448   1.000
    O58     O    0.43257   0.36932   0.25468   1.000
    O59     O    0.35826   0.46175   0.23931   1.000
    O60     O    0.45358   0.44060   0.24113   1.000
    O61     O    0.40805   0.47027   0.27695   1.000
    O62     O    0.33876   0.41283   0.24100   1.000
    O63     O    0.44981   0.41698   0.28821   1.000
    O64     O    0.31586   0.44912   0.27879   1.000
    O65     O    0.34464   0.40966   0.29569   1.000
    Zr66    Zr   0.38931   0.42870   0.76448   1.000
    O67     O    0.31586   0.44912   0.77879   1.000
    O68     O    0.44982   0.41698   0.78821   1.000
    O69     O    0.45358   0.44060   0.74116   1.000
    O70     O    0.35826   0.46175   0.73931   1.000
    O71     O    0.40806   0.47027   0.77695   1.000
    O72     O    0.34465   0.40966   0.79570   1.000
    O73     O    0.43258   0.36932   0.75468   1.000
    O74     O    0.33877   0.41283   0.74101   1.000
    Zr75    Zr   0.61067   0.07129   0.23551   1.000
    O76     O    0.64171   0.03823   0.26067   1.000
    O77     O    0.59192   0.02971   0.22305   1.000
    O78     O    0.68412   0.05087   0.22120   1.000
    O79     O    0.56741   0.13067   0.24531   1.000
    O80     O    0.66122   0.08717   0.25897   1.000
    O81     O    0.55018   0.08300   0.21178   1.000
    O82     O    0.54640   0.05939   0.25885   1.000
    O83     O    0.65535   0.09033   0.20430   1.000
    Zr84    Zr   0.88934   0.92869   0.76448   1.000
    O85     O    0.90808   0.97026   0.77695   1.000
    O86     O    0.84467   0.90965   0.79570   1.000
    O87     O    0.93259   0.86931   0.75469   1.000
    O88     O    0.83879   0.91282   0.74100   1.000
    O89     O    0.81588   0.94911   0.77879   1.000
    O90     O    0.94982   0.91697   0.78821   1.000
    O91     O    0.95359   0.94059   0.74113   1.000
    O92     O    0.85829   0.96175   0.73931   1.000
    Zr93    Zr   0.88933   0.42870   0.76448   1.000
    O94     O    0.94982   0.41698   0.78821   1.000
    O95     O    0.84466   0.40966   0.79570   1.000
    O96     O    0.81588   0.44912   0.77879   1.000
    O97     O    0.95358   0.44060   0.74116   1.000
    O98     O    0.90808   0.47027   0.77695   1.000
    O99     O    0.93259   0.36932   0.75469   1.000
    O100    O    0.85828   0.46175   0.73931   1.000
    O101    O    0.83879   0.41283   0.74100   1.000
    Zr102   Zr   0.38932   0.92869   0.76448   1.000
    O103    O    0.35827   0.96175   0.73931   1.000
    O104    O    0.44982   0.91697   0.78821   1.000
    O105    O    0.31587   0.94911   0.77879   1.000
    O106    O    0.34465   0.90965   0.79570   1.000
    O107    O    0.33877   0.91282   0.74101   1.000
    O108    O    0.43258   0.86931   0.75469   1.000
    O109    O    0.40806   0.97026   0.77695   1.000
    O110    O    0.45358   0.94059   0.74116   1.000
    Zr111   Zr   0.11065   0.07129   0.23551   1.000
    O112    O    0.06740   0.13066   0.24531   1.000
    O113    O    0.09190   0.02971   0.22305   1.000
    O114    O    0.15533   0.09033   0.20430   1.000
    O115    O    0.18410   0.05087   0.22120   1.000
    O116    O    0.16120   0.08717   0.25897   1.000
    O117    O    0.14170   0.03823   0.26067   1.000
    O118    O    0.05017   0.08300   0.21178   1.000
    O119    O    0.04640   0.05939   0.25885   1.000
    Zr120   Zr   0.11065   0.07129   0.73552   1.000
    O121    O    0.06740   0.13066   0.74532   1.000
    O122    O    0.14170   0.03823   0.76069   1.000
    O123    O    0.04640   0.05939   0.75885   1.000
    O124    O    0.15533   0.09033   0.70430   1.000
    O125    O    0.05017   0.08300   0.71179   1.000
    O126    O    0.18410   0.05087   0.72121   1.000
    O127    O    0.16121   0.08717   0.75898   1.000
    O128    O    0.09191   0.02971   0.72303   1.000
    Zr129   Zr   0.88933   0.42870   0.26448   1.000
    O130    O    0.81588   0.44912   0.27878   1.000
    O131    O    0.93258   0.36932   0.25468   1.000
    O132    O    0.84466   0.40966   0.29569   1.000
    O133    O    0.83878   0.41283   0.24100   1.000
    O134    O    0.95358   0.44060   0.24116   1.000
    O135    O    0.85828   0.46175   0.23931   1.000
    O136    O    0.90807   0.47027   0.27695   1.000
    O137    O    0.94982   0.41698   0.28821   1.000
    Zr138   Zr   0.61066   0.57129   0.23552   1.000
    O139    O    0.65534   0.59033   0.20430   1.000
    O140    O    0.68411   0.55087   0.22121   1.000
    O141    O    0.54639   0.55938   0.25885   1.000
    O142    O    0.55017   0.58300   0.21179   1.000
    O143    O    0.64171   0.53823   0.26068   1.000
    O144    O    0.66122   0.58717   0.25897   1.000
    O145    O    0.56740   0.63066   0.24531   1.000
    O146    O    0.59192   0.52972   0.22303   1.000
    Zr147   Zr   0.38930   0.92870   0.26448   1.000
    O148    O    0.44981   0.91698   0.28821   1.000
    O149    O    0.35826   0.96175   0.23931   1.000
    O150    O    0.45357   0.94060   0.24116   1.000
    O151    O    0.40805   0.97027   0.27695   1.000
    O152    O    0.31585   0.94912   0.27878   1.000
    O153    O    0.34463   0.90965   0.29569   1.000
    O154    O    0.43257   0.86932   0.25468   1.000
    O155    O    0.33876   0.91282   0.24100   1.000
    Zr156   Zr   0.61067   0.07129   0.73552   1.000
    O157    O    0.56741   0.13066   0.74532   1.000
    O158    O    0.59192   0.02971   0.72306   1.000
    O159    O    0.66123   0.08717   0.75897   1.000
    O160    O    0.55018   0.08300   0.71179   1.000
    O161    O    0.68412   0.05087   0.72121   1.000
    O162    O    0.54641   0.05939   0.75885   1.000
    O163    O    0.65535   0.09033   0.70430   1.000
    O164    O    0.64172   0.03823   0.76069   1.000
    Zr165   Zr   0.11065   0.57128   0.73552   1.000
    O166    O    0.06740   0.63065   0.74532   1.000
    O167    O    0.15533   0.59032   0.70430   1.000
    O168    O    0.09191   0.52971   0.72306   1.000
    O169    O    0.16121   0.58716   0.75898   1.000
    O170    O    0.18410   0.55086   0.72121   1.000
    O171    O    0.14170   0.53823   0.76069   1.000
    O172    O    0.05017   0.58299   0.71178   1.000
    O173    O    0.04640   0.55938   0.75885   1.000
    Zr174   Zr   0.61067   0.57128   0.73552   1.000
    O175    O    0.56741   0.63065   0.74531   1.000
    O176    O    0.66123   0.58716   0.75897   1.000
    O177    O    0.64172   0.53823   0.76069   1.000
    O178    O    0.59193   0.52971   0.72306   1.000
    O179    O    0.55018   0.58299   0.71179   1.000
    O180    O    0.54641   0.55938   0.75885   1.000
    O181    O    0.65535   0.59032   0.70430   1.000
    O182    O    0.68412   0.55086   0.72121   1.000
    Zr183   Zr   0.88932   0.92870   0.26448   1.000
    O184    O    0.85827   0.96175   0.23931   1.000
    O185    O    0.93258   0.86932   0.25468   1.000
    O186    O    0.95357   0.94060   0.24116   1.000
    O187    O    0.90807   0.97027   0.27695   1.000
    O188    O    0.84465   0.90965   0.29569   1.000
    O189    O    0.83878   0.91283   0.24100   1.000
    O190    O    0.81587   0.94912   0.27878   1.000
    O191    O    0.94981   0.91698   0.28821   1.000
loop_
    _geom_bond_atom_site_label_1
    _geom_bond_atom_site_label_2
    _geom_bond_distance
    _geom_bond_site_symmetry_2
    _ccdc_geom_bond_type
    N0     O2        6.87148  1_455   S
    N1     O2        2.73306      .   S
    N3     O5        6.23584  1_566   S
    N4     O5        2.34442      .   S
    N7     O8        6.23582  1_554   S
    N6     O8        2.34428      .   S
    N9     O11       6.23673      .   S
    N10    O11       2.34331      .   S
    N13    O14       6.23569  1_556   S
    N12    O14       2.34440      .   S
    N16    O17       6.23664  1_545   S
    N15    O17       2.34357      .   S
    N19    O20       6.23576  1_565   S
    N18    O20       2.34446      .   S
    N22    O23       6.87163      .   S
    N21    O23       2.73301      .   S
    N25    O26       6.87159  1_455   S
    N24    O26       2.73296      .   S
    N28    O29       6.87162  1_455   S
    N27    O29       2.73292      .   S
    N30    O32       6.23579  1_566   S
    N31    O32       2.34446      .   S
    N33    O35       6.87164      .   S
    N34    O35       2.73302      .   S
    N37    O38       6.23623      .   S
    N36    O38       2.34383      .   S
    N40    O41       6.87167  1_455   S
    N39    O41       2.73294      .   S
    N43    O44       6.87162      .   S
    N42    O44       2.73270      .   S
    N46    O47       6.87173      .   S
    N45    O47       2.73304      .   S
    Zr48   O49       0.93027      .   S
    N36    O49       2.93777      .   S
    Zr48   O50       0.92231      .   S
    N22    O50       3.26504      .   S
    Zr48   O51       0.95739      .   S
    N24    O51       3.31789  1_655   S
    Zr48   O52       0.97054      .   S
    N7     O52       2.38438      .   S
    Zr48   O53       1.30734      .   S
    N25    O53       6.60182      .   S
    Zr48   O54       0.92059      .   S
    N12    O54       2.84653  1_655   S
    Zr48   O55       0.97193      .   S
    N7     O55       2.37822      .   S
    Zr48   O56       0.97597      .   S
    N0     O56       3.06952      .   S
    Zr57   O58       1.30739      .   S
    N33    O58       3.90372      .   S
    Zr57   O59       0.93029      .   S
    N7     O59       2.93772      .   S
    Zr57   O60       0.95776      .   S
    N33    O60       3.31671      .   S
    Zr57   O61       0.97601      .   S
    N22    O61       3.06987      .   S
    Zr57   O62       0.92254      .   S
    N0     O62       3.26601      .   S
    Zr57   O63       0.92075      .   S
    N10    O63       2.84685      .   S
    Zr57   O64       0.97055      .   S
    N36    O64       2.38426      .   S
    Zr57   O65       0.97179      .   S
    N36    O65       2.37820      .   S
    Zr66   O67       0.97051      .   S
    N6     O67       2.38424      .   S
    Zr66   O68       0.92078      .   S
    N13    O68       2.84688      .   S
    Zr66   O69       0.95735      .   S
    N43    O69       3.31734      .   S
    Zr66   O70       0.93020      .   S
    N37    O70       2.93771      .   S
    Zr66   O71       0.97598      .   S
    N45    O71       3.06988      .   S
    Zr66   O72       0.97179      .   S
    N6     O72       2.37816      .   S
    Zr66   O73       1.30752      .   S
    N43    O73       3.90376      .   S
    Zr66   O74       0.92246      .   S
    N28    O74       3.26595      .   S
    Zr75   O76       0.93014      .   S
    N15    O76       2.93815  1_565   S
    Zr75   O77       0.97598      .   S
    N21    O77       3.06942  1_565   S
    Zr75   O78       0.97045      .   S
    N31    O78       2.38426      .   S
    Zr75   O79       1.30751      .   S
    N33    O79       6.60173      .   S
    Zr75   O80       0.92234      .   S
    N1     O80       3.26500      .   S
    Zr75   O81       0.92070      .   S
    N4     O81       2.84672      .   S
    Zr75   O82       0.95756      .   S
    N34    O82       3.31811      .   S
    Zr75   O83       0.97187      .   S
    N31    O83       2.37808      .   S
    Zr84   O85       0.97610      .   S
    N27    O85       3.07007  1_545   S
    Zr84   O86       0.97180      .   S
    N30    O86       2.37822      .   S
    Zr84   O87       1.30739      .   S
    N40    O87       3.90367  1_455   S
    Zr84   O88       0.92254      .   S
    N46    O88       3.26610      .   S
    Zr84   O89       0.97056      .   S
    N30    O89       2.38428      .   S
    Zr84   O90       0.92063      .   S
    N3     O90       2.84660  1_455   S
    Zr84   O91       0.95763      .   S
    N40    O91       3.31669  1_455   S
    Zr84   O92       0.93030      .   S
    N16    O92       2.93789  1_545   S
    Zr93   O94       0.92065      .   S
    N6     O94       2.84664  1_455   S
    Zr93   O95       0.97180      .   S
    N13    O95       2.37817      .   S
    Zr93   O96       0.97052      .   S
    N13    O96       2.38426      .   S
    Zr93   O97       0.95722      .   S
    N28    O97       3.31719  1_455   S
    Zr93   O98       0.97597      .   S
    N39    O98       3.06985      .   S
    Zr93   O99       1.30749      .   S
    N28    O99       3.90359  1_455   S
    Zr93   O100      0.93020      .   S
    N9     O100      2.93768      .   S
    Zr93   O101      0.92251      .   S
    N43    O101      3.26609      .   S
    Zr102  O103      0.93030      .   S
    N18    O103      2.93790  1_545   S
    Zr102  O104      0.92075      .   S
    N30    O104      2.84683      .   S
    Zr102  O105      0.97055      .   S
    N3     O105      2.38427      .   S
    Zr102  O106      0.97179      .   S
    N3     O106      2.37821      .   S
    Zr102  O107      0.92248      .   S
    N40    O107      3.26605      .   S
    Zr102  O108      1.30742      .   S
    N46    O108      3.90377      .   S
    Zr102  O109      0.97611      .   S
    N42    O109      3.06946  1_545   S
    Zr102  O110      0.95735      .   S
    N46    O110      3.31731      .   S
    Zr111  O112      1.30748      .   S
    N0     O112      6.60171      .   S
    Zr111  O113      0.97600      .   S
    N25    O113      3.06942  1_565   S
    Zr111  O114      0.97187      .   S
    N4     O114      2.37810      .   S
    Zr111  O115      0.97046      .   S
    N4     O115      2.38428      .   S
    Zr111  O116      0.92234      .   S
    N34    O116      3.26512      .   S
    Zr111  O117      0.93013      .   S
    N19    O117      2.93814  1_565   S
    Zr111  O118      0.92057      .   S
    N31    O118      2.84649  1_655   S
    Zr111  O119      0.95744      .   S
    N1     O119      3.31805  1_655   S
    Zr120  O121      1.30736      .   S
    N28    O121      6.60176      .   S
    Zr120  O122      0.93033      .   S
    N3     O122      2.93791  1_565   S
    Zr120  O123      0.95739      .   S
    N27    O123      3.31795  1_655   S
    Zr120  O124      0.97193      .   S
    N18    O124      2.37820      .   S
    Zr120  O125      0.92054      .   S
    N16    O125      2.84658  1_655   S
    Zr120  O126      0.97049      .   S
    N18    O126      2.38443      .   S
    Zr120  O127      0.92236      .   S
    N42    O127      3.26446      .   S
    Zr120  O128      0.97632      .   S
    N40    O128      3.06920  1_565   S
    Zr129  O130      0.97044      .   S
    N10    O130      2.38447      .   S
    Zr129  O131      1.30739      .   S
    N0     O131      3.90358  1_455   S
    Zr129  O132      0.97179      .   S
    N10    O132      2.37822      .   S
    Zr129  O133      0.92254      .   S
    N33    O133      3.26614      .   S
    Zr129  O134      0.95727      .   S
    N0     O134      3.31715  1_455   S
    Zr129  O135      0.93029      .   S
    N12    O135      2.93771      .   S
    Zr129  O136      0.97600      .   S
    N24    O136      3.06993      .   S
    Zr129  O137      0.92063      .   S
    N36    O137      2.84661  1_455   S
    Zr138  O139      0.97193      .   S
    N12    O139      2.37821      .   S
    Zr138  O140      0.97053      .   S
    N12    O140      2.38437      .   S
    Zr138  O141      0.95751      .   S
    N22    O141      3.31794      .   S
    Zr138  O142      0.92072      .   S
    N7     O142      2.84675      .   S
    Zr138  O143      0.93006      .   S
    N10    O143      2.93800      .   S
    Zr138  O144      0.92231      .   S
    N24    O144      3.26492      .   S
    Zr138  O145      1.30736      .   S
    N22    O145      3.90433      .   S
    Zr138  O146      0.97623      .   S
    N33    O146      3.06899      .   S
    Zr147  O148      0.92079      .   S
    N15    O148      2.84688      .   S
    Zr147  O149      0.93031      .   S
    N4     O149      2.93778  1_545   S
    Zr147  O150      0.95735      .   S
    N21    O150      3.31733      .   S
    Zr147  O151      0.97608      .   S
    N34    O151      3.06987  1_545   S
    Zr147  O152      0.97038      .   S
    N19    O152      2.38444      .   S
    Zr147  O153      0.97179      .   S
    N19    O153      2.37813      .   S
    Zr147  O154      1.30753      .   S
    N22    O154      6.60131      .   S
    Zr147  O155      0.92251      .   S
    N25    O155      3.26598      .   S
    Zr156  O157      1.30737      .   S
    N43    O157      6.60181      .   S
    Zr156  O158      0.97604      .   S
    N46    O158      3.06968  1_565   S
    Zr156  O159      0.92230      .   S
    N27    O159      3.26503      .   S
    Zr156  O160      0.92067      .   S
    N18    O160      2.84681      .   S
    Zr156  O161      0.97049      .   S
    N16    O161      2.38441      .   S
    Zr156  O162      0.95751      .   S
    N42    O162      3.31743      .   S
    Zr156  O163      0.97193      .   S
    N16    O163      2.37819      .   S
    Zr156  O164      0.93033      .   S
    N30    O164      2.93792  1_565   S
    Zr165  O166      1.30746      .   S
    N40    O166      6.60177      .   S
    Zr165  O167      0.97193      .   S
    N37    O167      2.37816      .   S
    Zr165  O168      0.97591      .   S
    N28    O168      3.06945      .   S
    Zr165  O169      0.92234      .   S
    N45    O169      3.26515      .   S
    Zr165  O170      0.97046      .   S
    N37    O170      2.38440      .   S
    Zr165  O171      0.93024      .   S
    N6     O171      2.93772      .   S
    Zr165  O172      0.92084      .   S
    N9     O172      2.84640  1_655   S
    Zr165  O173      0.95739      .   S
    N39    O173      3.31798  1_655   S
    Zr174  O175      1.30744      .   S
    N46    O175      6.60174      .   S
    Zr174  O176      0.92228      .   S
    N39    O176      3.26501      .   S
    Zr174  O177      0.93024      .   S
    N13    O177      2.93773      .   S
    Zr174  O178      0.97592      .   S
    N43    O178      3.06946      .   S
    Zr174  O179      0.92070      .   S
    N37    O179      2.84684      .   S
    Zr174  O180      0.95752      .   S
    N45    O180      3.31814      .   S
    Zr174  O181      0.97193      .   S
    N9     O181      2.37814      .   S
    Zr174  O182      0.97045      .   S
    N9     O182      2.38439      .   S
    Zr183  O184      0.93031      .   S
    N31    O184      2.93777  1_545   S
    Zr183  O185      1.30751      .   S
    N25    O185      3.90362  1_455   S
    Zr183  O186      0.95727      .   S
    N25    O186      3.31720  1_455   S
    Zr183  O187      0.97607      .   S
    N1     O187      3.06993  1_545   S
    Zr183  O188      0.97180      .   S
    N15    O188      2.37816      .   S
    Zr183  O189      0.92250      .   S
    N21    O189      3.26610      .   S
    Zr183  O190      0.97038      .   S
    N15    O190      2.38445      .   S
    Zr183  O191      0.92066      .   S
    N19    O191      2.84666  1_455   S
