# CIF file generated by openbabel 2.4.90, see http://openbabel.sf.net
data_I
_chemical_name_common ''
_cell_length_a 14.51
_cell_length_b 19.408
_cell_length_c 26.343
_cell_angle_alpha 90
_cell_angle_beta 90.001
_cell_angle_gamma 90.002
_space_group_name_H-M_alt 'P 1'
_space_group_name_Hall 'P 1'
loop_
    _symmetry_equiv_pos_as_xyz
    x,y,z
loop_
    _atom_site_label
    _atom_site_type_symbol
    _atom_site_fract_x
    _atom_site_fract_y
    _atom_site_fract_z
    _atom_site_occupancy
    Ba0     Ba   0.69184   0.69248   0.99860   1.000
    Ba1     Ba   0.30816   0.30754   0.49861   1.000
    Ba2     Ba   0.80816   0.30751   0.49860   1.000
    Ba3     Ba   0.44183   0.80754   0.99860   1.000
    Ba4     Ba   0.94185   0.80755   0.99860   1.000
    Ba5     Ba   0.05815   0.19248   0.49860   1.000
    Ba6     Ba   0.55816   0.19248   0.49861   1.000
    Ba7     Ba   0.19183   0.69249   0.99860   1.000
