# CIF file generated by openbabel 2.4.90, see http://openbabel.sf.net
data_I
_chemical_name_common ''
_cell_length_a 14.51
_cell_length_b 19.408
_cell_length_c 26.343
_cell_angle_alpha 90
_cell_angle_beta 90.001
_cell_angle_gamma 90.002
_space_group_name_H-M_alt 'P 1'
_space_group_name_Hall 'P 1'
loop_
    _symmetry_equiv_pos_as_xyz
    x,y,z
loop_
    _atom_site_label
    _atom_site_type_symbol
    _atom_site_fract_x
    _atom_site_fract_y
    _atom_site_fract_z
    _atom_site_occupancy
    N0      N    0.52763   0.31045   0.85830   1.000
    N1      N    0.02762   0.31044   0.85829   1.000
    N2      N    0.97217   0.68957   0.35816   1.000
    N3      N    0.47239   0.68958   0.35830   1.000
    N4      N    0.27759   0.18957   0.85831   1.000
    N5      N    0.77763   0.18958   0.85830   1.000
    N6      N    0.22237   0.81044   0.35829   1.000
    N7      N    0.72249   0.81045   0.35817   1.000
    Zr8     Zr   0.19183   0.69249   0.99860   1.000
    O9      O    0.18669   0.73131   0.09703   1.000
    O10     O    0.12763   0.59480   0.96125   1.000
    O11     O    0.21614   0.54934   0.96121   1.000
    O12     O    0.29724   0.59616   0.95731   1.000
    Zr13    Zr   0.69184   0.69248   0.99860   1.000
    O14     O    0.71616   0.54934   0.96121   1.000
    O15     O    0.79724   0.59616   0.95731   1.000
    O16     O    0.68672   0.73130   0.09700   1.000
    O17     O    0.62764   0.59480   0.96126   1.000
    Zr18    Zr   0.30816   0.30754   0.49861   1.000
    O19     O    0.20270   0.40387   0.45728   1.000
    O20     O    0.31329   0.26872   0.59704   1.000
    O21     O    0.28384   0.45068   0.46122   1.000
    O22     O    0.37236   0.40522   0.46126   1.000
    Zr23    Zr   0.80816   0.30751   0.49860   1.000
    O24     O    0.81331   0.26870   0.59704   1.000
    O25     O    0.78387   0.45066   0.46117   1.000
    O26     O    0.87231   0.40520   0.46122   1.000
    O27     O    0.70276   0.40385   0.45731   1.000
    Zr28    Zr   0.44183   0.80754   0.99860   1.000
    O29     O    0.37763   0.90523   0.96126   1.000
    O30     O    0.54724   0.90387   0.95731   1.000
    O31     O    0.43670   0.76872   0.09703   1.000
    O32     O    0.46616   0.95069   0.96121   1.000
    Zr33    Zr   0.94185   0.80755   0.99860   1.000
    O34     O    0.04724   0.90387   0.95731   1.000
    O35     O    0.93665   0.76872   0.09700   1.000
    O36     O    0.87765   0.90523   0.96126   1.000
    O37     O    0.96616   0.95069   0.96121   1.000
    Zr38    Zr   0.05815   0.19248   0.49860   1.000
    O39     O    0.06329   0.23130   0.59703   1.000
    O40     O    0.12235   0.09480   0.46125   1.000
    O41     O    0.03378   0.04933   0.46118   1.000
    O42     O    0.95278   0.09615   0.45728   1.000
    Zr43    Zr   0.55816   0.19248   0.49861   1.000
    O44     O    0.62238   0.09480   0.46123   1.000
    O45     O    0.56330   0.23131   0.59704   1.000
    O46     O    0.45275   0.09616   0.45731   1.000
    O47     O    0.53384   0.04934   0.46122   1.000
    O48     O    0.52664   0.80973   0.09788   1.000
    O49     O    0.46244   0.66739   0.95928   1.000
    O50     O    0.21243   0.83264   0.95928   1.000
    O51     O    0.27660   0.69030   0.09792   1.000
    O52     O    0.96244   0.66739   0.95928   1.000
    O53     O    0.02661   0.80973   0.09792   1.000
    O54     O    0.22338   0.30972   0.59792   1.000
    O55     O    0.47338   0.19030   0.59792   1.000
    O56     O    0.78759   0.16737   0.45925   1.000
    O57     O    0.28755   0.16739   0.45929   1.000
    O58     O    0.72340   0.30971   0.59792   1.000
    O59     O    0.97339   0.19029   0.59792   1.000
    O60     O    0.71244   0.83264   0.95928   1.000
    O61     O    0.03750   0.33263   0.45925   1.000
    O62     O    0.77656   0.69030   0.09788   1.000
    O63     O    0.53756   0.33264   0.45929   1.000
loop_
    _geom_bond_atom_site_label_1
    _geom_bond_atom_site_label_2
    _geom_bond_distance
    _geom_bond_site_symmetry_2
    _ccdc_geom_bond_type
    Zr8    O9        2.70128  1_556   S
    N6     O9        7.07064      .   S
    Zr8    O10       2.33026      .   S
    N1     O10       6.31812      .   S
    Zr8    O11       2.96869      .   S
    N4     O11       7.54306      .   S
    Zr8    O12       2.64913      .   S
    N0     O12       6.98056      .   S
    Zr13   O14       2.96867      .   S
    N5     O14       7.54301      .   S
    Zr13   O15       2.64910      .   S
    N1     O15       6.98050  1_455   S
    Zr13   O16       2.70053  1_556   S
    N7     O16       7.06845      .   S
    Zr13   O17       2.33012      .   S
    N0     O17       6.31801      .   S
    Zr18   O19       2.64989      .   S
    N2     O19       6.98247  1_655   S
    Zr18   O20       2.70128      .   S
    N4     O20       7.07076      .   S
    Zr18   O21       2.96870      .   S
    N6     O21       7.54307      .   S
    Zr18   O22       2.33024      .   S
    N3     O22       6.31819      .   S
    Zr23   O24       2.70131      .   S
    N5     O24       7.07076      .   S
    Zr23   O25       2.96904      .   S
    N7     O25       7.54423      .   S
    Zr23   O26       2.33040      .   S
    N2     O26       6.31898      .   S
    Zr23   O27       2.64916      .   S
    N3     O27       6.98062      .   S
    Zr28   O29       2.33019      .   S
    N4     O29       6.31803  1_545   S
    Zr28   O30       2.64901      .   S
    N5     O30       6.98025  1_545   S
    Zr28   O31       2.70135  1_556   S
    N3     O31       7.07080      .   S
    Zr28   O32       2.96862      .   S
    N0     O32       7.54286  1_545   S
    Zr33   O34       2.64885  1_655   S
    N4     O34       6.97990  1_545   S
    Zr33   O35       2.70052  1_556   S
    N2     O35       7.06806      .   S
    Zr33   O36       2.33014      .   S
    N5     O36       6.31800  1_545   S
    Zr33   O37       2.96861      .   S
    N1     O37       7.54285  1_445   S
    Zr38   O39       2.70129      .   S
    N1     O39       7.07066      .   S
    Zr38   O40       2.33024      .   S
    N6     O40       6.31823  1_565   S
    Zr38   O41       2.96902      .   S
    N2     O41       7.54416  1_665   S
    Zr38   O42       2.64902  1_455   S
    N7     O42       6.98039  1_565   S
    Zr43   O44       2.33080      .   S
    N7     O44       6.31952  1_565   S
    Zr43   O45       2.70127      .   S
    N0     O45       7.07069      .   S
    Zr43   O46       2.64907      .   S
    N6     O46       6.98039  1_565   S
    Zr43   O47       2.96870      .   S
    N3     O47       7.54300  1_565   S
    Zr28   O48       2.89075  1_556   S
    N7     O48       7.42232      .   S
    Zr28   O49       2.92594      .   S
    N0     O49       7.48086      .   S
    Zr8    O50       2.92583      .   S
    N4     O50       7.48054  1_545   S
    Zr8    O51       2.89136  1_556   S
    N3     O51       7.42422      .   S
    Zr33   O52       2.92601      .   S
    N1     O52       7.48093  1_455   S
    Zr33   O53       2.89125  1_656   S
    N6     O53       7.42398      .   S
    N1     O54       7.42396      .   S
    Zr18   O54       2.89122      .   S
    N4     O55       7.42429      .   S
    Zr43   O55       2.89134      .   S
    N7     O56       7.48102  1_565   S
    Zr23   O56       2.92594      .   S
    Zr18   O57       2.92595      .   S
    N6     O57       7.48085  1_565   S
    Zr23   O58       2.89135      .   S
    N0     O58       7.42429      .   S
    N5     O59       7.42420      .   S
    Zr38   O59       2.89132  1_455   S
    N5     O60       7.48071  1_545   S
    Zr13   O60       2.92590      .   S
    N2     O61       7.48199  1_655   S
    Zr38   O61       2.92629      .   S
    N2     O62       7.42082      .   S
    Zr13   O62       2.89020  1_556   S
    Zr43   O63       2.92591      .   S
    N3     O63       7.48079      .   S
