# CIF file generated by openbabel 2.4.90, see http://openbabel.sf.net
data_I
_chemical_name_common ''
_cell_length_a 14.51
_cell_length_b 19.408
_cell_length_c 26.343
_cell_angle_alpha 90
_cell_angle_beta 90.001
_cell_angle_gamma 90.002
_space_group_name_H-M_alt 'P 1'
_space_group_name_Hall 'P 1'
loop_
    _symmetry_equiv_pos_as_xyz
    x,y,z
loop_
    _atom_site_label
    _atom_site_type_symbol
    _atom_site_fract_x
    _atom_site_fract_y
    _atom_site_fract_z
    _atom_site_occupancy
    Zr0     Zr   0.19183   0.69249   0.99860   1.000
    Zr1     Zr   0.69184   0.69248   0.99860   1.000
    Zr2     Zr   0.30816   0.30754   0.49861   1.000
    Zr3     Zr   0.80816   0.30751   0.49860   1.000
    Zr4     Zr   0.44183   0.80754   0.99860   1.000
    Zr5     Zr   0.94185   0.80755   0.99860   1.000
    Zr6     Zr   0.05815   0.19248   0.49860   1.000
    Zr7     Zr   0.55816   0.19248   0.49861   1.000
    N8      N    0.52763   0.31045   0.85830   1.000
    O9      O    0.40264   0.49983   0.91602   1.000
    O10     O    0.46515   0.52859   0.91602   1.000
    O11     O    0.56344   0.49712   0.92391   1.000
    O12     O    0.50094   0.52588   0.92391   1.000
    O13     O    0.49048   0.09384   0.92383   1.000
    O14     O    0.64633   0.32493   0.69900   1.000
    O15     O    0.56845   0.27013   0.69547   1.000
    O16     O    0.63095   0.29888   0.69547   1.000
    N17     N    0.02762   0.31044   0.85829   1.000
    O18     O    0.90264   0.49983   0.91602   1.000
    O19     O    0.96515   0.52859   0.91602   1.000
    O20     O    0.06343   0.49712   0.92390   1.000
    O21     O    0.00094   0.52588   0.92390   1.000
    O22     O    0.99048   0.09384   0.92382   1.000
    O23     O    0.14628   0.32494   0.69899   1.000
    O24     O    0.06844   0.27012   0.69547   1.000
    O25     O    0.13094   0.29888   0.69547   1.000
    N26     N    0.97217   0.68957   0.35816   1.000
    O27     O    0.09725   0.50019   0.41595   1.000
    O28     O    0.03474   0.47143   0.41595   1.000
    O29     O    0.93645   0.50290   0.42384   1.000
    O30     O    0.99895   0.47414   0.42384   1.000
    O31     O    0.00941   0.90619   0.42375   1.000
    O32     O    0.85361   0.67508   0.19893   1.000
    O33     O    0.93146   0.72990   0.19540   1.000
    O34     O    0.86895   0.70113   0.19540   1.000
    N35     N    0.47239   0.68958   0.35830   1.000
    O36     O    0.59736   0.50018   0.41602   1.000
    O37     O    0.53486   0.47143   0.41602   1.000
    O38     O    0.43656   0.50291   0.42391   1.000
    O39     O    0.49906   0.47414   0.42391   1.000
    O40     O    0.50953   0.90619   0.42382   1.000
    O41     O    0.35370   0.67508   0.19900   1.000
    O42     O    0.43156   0.72990   0.19547   1.000
    O43     O    0.36906   0.70113   0.19547   1.000
    N44     N    0.27759   0.18957   0.85831   1.000
    O45     O    0.21513   0.97143   0.91602   1.000
    O46     O    0.15263   0.00020   0.91602   1.000
    O47     O    0.31342   0.00291   0.92392   1.000
    O48     O    0.25092   0.97415   0.92392   1.000
    O49     O    0.24046   0.40619   0.92382   1.000
    O50     O    0.39628   0.17508   0.69900   1.000
    O51     O    0.31843   0.22990   0.69548   1.000
    O52     O    0.38093   0.20113   0.69548   1.000
    N53     N    0.77763   0.18958   0.85830   1.000
    O54     O    0.71515   0.97143   0.91602   1.000
    O55     O    0.65265   0.00020   0.91602   1.000
    O56     O    0.81345   0.00291   0.92391   1.000
    O57     O    0.75095   0.97414   0.92391   1.000
    O58     O    0.74048   0.40619   0.92383   1.000
    O59     O    0.89630   0.17508   0.69900   1.000
    O60     O    0.81845   0.22989   0.69547   1.000
    O61     O    0.88095   0.20113   0.69547   1.000
    N62     N    0.22237   0.81044   0.35829   1.000
    O63     O    0.28485   0.02859   0.41602   1.000
    O64     O    0.34735   0.99983   0.41602   1.000
    O65     O    0.18655   0.99711   0.42391   1.000
    O66     O    0.24905   0.02588   0.42391   1.000
    O67     O    0.25951   0.59383   0.42382   1.000
    O68     O    0.10371   0.82494   0.19899   1.000
    O69     O    0.18155   0.77012   0.19547   1.000
    O70     O    0.11905   0.79889   0.19547   1.000
    N71     N    0.72249   0.81045   0.35817   1.000
    O72     O    0.68161   0.77012   0.19541   1.000
    O73     O    0.61911   0.79889   0.19541   1.000
    O74     O    0.78491   0.02858   0.41596   1.000
    O75     O    0.84741   0.99983   0.41596   1.000
    O76     O    0.68661   0.99711   0.42385   1.000
    O77     O    0.74911   0.02587   0.42385   1.000
    O78     O    0.75958   0.59381   0.42374   1.000
    O79     O    0.60377   0.82494   0.19893   1.000
loop_
    _geom_bond_atom_site_label_1
    _geom_bond_atom_site_label_2
    _geom_bond_distance
    _geom_bond_site_symmetry_2
    _ccdc_geom_bond_type
    N8     O9        4.37162      .   S
    Zr0    O9        5.29826      .   S
    N8     O10       4.58905      .   S
    Zr4    O10       5.84439      .   S
    N8     O11       4.04754      .   S
    Zr1    O11       4.66025      .   S
    N8     O12       4.54088      .   S
    Zr4    O12       5.87280      .   S
    N8     O13       4.57636      .   S
    Zr4    O13       5.93724  1_565   S
    N8     O14       4.54482      .   S
    Zr3    O14       5.78787      .   S
    N8     O15       4.40025      .   S
    Zr7    O15       5.40255      .   S
    N8     O16       4.54947      .   S
    Zr3    O16       5.79110      .   S
    N17    O18       4.37159  1_455   S
    Zr1    O18       5.29820      .   S
    N17    O19       4.58908  1_455   S
    Zr5    O19       5.84450      .   S
    N17    O20       4.04751      .   S
    Zr0    O20       4.66052      .   S
    N17    O21       4.54084      .   S
    Zr5    O21       5.87297  1_655   S
    N17    O22       4.57637  1_455   S
    Zr5    O22       5.93721  1_565   S
    N17    O23       4.54465      .   S
    Zr2    O23       5.78759      .   S
    N17    O24       4.40020      .   S
    Zr6    O24       5.40258      .   S
    N17    O25       4.54928      .   S
    Zr2    O25       5.79086      .   S
    N26    O27       4.37275  1_655   S
    Zr2    O27       5.29977      .   S
    N26    O28       4.58984  1_655   S
    Zr6    O28       5.84510      .   S
    N26    O29       4.04824      .   S
    Zr3    O29       4.66079      .   S
    N26    O30       4.54164      .   S
    Zr6    O30       5.87352  1_455   S
    N26    O31       4.57727  1_655   S
    Zr6    O31       5.93803  1_545   S
    N26    O32       4.54252      .   S
    Zr1    O32       5.78557  1_556   S
    N26    O33       4.39835      .   S
    Zr5    O33       5.40105  1_556   S
    N26    O34       4.54720      .   S
    Zr1    O34       5.78880  1_556   S
    N35    O36       4.37164      .   S
    Zr3    O36       5.29833      .   S
    N35    O37       4.58902      .   S
    Zr7    O37       5.84432      .   S
    N35    O38       4.04759      .   S
    Zr2    O38       4.66048      .   S
    N35    O39       4.54083      .   S
    Zr7    O39       5.87277      .   S
    N35    O40       4.57643      .   S
    Zr7    O40       5.93739  1_545   S
    N35    O41       4.54473      .   S
    Zr0    O41       5.78790  1_556   S
    N35    O42       4.40027      .   S
    Zr4    O42       5.40270  1_556   S
    N35    O43       4.54942      .   S
    Zr0    O43       5.79110  1_556   S
    N44    O45       4.58881  1_545   S
    Zr0    O45       5.84421      .   S
    N44    O46       4.37125      .   S
    Zr5    O46       5.29769  1_665   S
    N44    O47       4.04749      .   S
    Zr4    O47       4.66038  1_565   S
    N44    O48       4.54070  1_545   S
    Zr0    O48       5.87257      .   S
    N44    O49       4.57649      .   S
    Zr0    O49       5.93738      .   S
    N44    O50       4.54485      .   S
    Zr7    O50       5.78783      .   S
    N44    O51       4.40032      .   S
    Zr2    O51       5.40256      .   S
    N44    O52       4.54949      .   S
    Zr7    O52       5.79108      .   S
    N53    O54       4.58892  1_545   S
    Zr1    O54       5.84433      .   S
    N53    O55       4.37143      .   S
    Zr4    O55       5.29802  1_565   S
    N53    O56       4.04751      .   S
    Zr5    O56       4.66028  1_565   S
    N53    O57       4.54080  1_545   S
    Zr1    O57       5.87270      .   S
    N53    O58       4.57647      .   S
    Zr1    O58       5.93733      .   S
    N53    O59       4.54476      .   S
    Zr6    O59       5.78781  1_455   S
    N53    O60       4.40028      .   S
    Zr3    O60       5.40262      .   S
    N53    O61       4.54943      .   S
    Zr6    O61       5.79102  1_455   S
    N62    O63       4.58900  1_565   S
    Zr2    O63       5.84445      .   S
    N62    O64       4.37151      .   S
    Zr7    O64       5.29815  1_545   S
    N62    O65       4.04763      .   S
    Zr6    O65       4.66049  1_545   S
    N62    O66       4.54089  1_565   S
    Zr2    O66       5.87281      .   S
    N62    O67       4.57650      .   S
    Zr2    O67       5.93740      .   S
    N62    O68       4.54461      .   S
    Zr5    O68       5.78767  1_656   S
    N62    O69       4.40018      .   S
    Zr0    O69       5.40256  1_556   S
    N62    O70       4.54927      .   S
    Zr5    O70       5.79090  1_656   S
    N71    O72       4.39876      .   S
    Zr1    O72       5.40105  1_556   S
    N71    O73       4.54807      .   S
    Zr4    O73       5.78994  1_556   S
    N71    O74       4.58910  1_565   S
    Zr3    O74       5.84448      .   S
    N71    O75       4.37155      .   S
    Zr6    O75       5.29804  1_445   S
    N71    O76       4.04833      .   S
    Zr7    O76       4.66159  1_545   S
    N71    O77       4.54113  1_565   S
    Zr3    O77       5.87274      .   S
    N71    O78       4.57729      .   S
    Zr3    O78       5.93809      .   S
    N71    O79       4.54352      .   S
    Zr4    O79       5.78661  1_556   S
