# CIF file generated by openbabel 2.4.90, see http://openbabel.sf.net
data_I
_chemical_name_common ''
_cell_length_a 14.51
_cell_length_b 19.408
_cell_length_c 26.343
_cell_angle_alpha 90
_cell_angle_beta 90.001
_cell_angle_gamma 90.002
_space_group_name_H-M_alt 'P 1'
_space_group_name_Hall 'P 1'
loop_
    _symmetry_equiv_pos_as_xyz
    x,y,z
loop_
    _atom_site_label
    _atom_site_type_symbol
    _atom_site_fract_x
    _atom_site_fract_y
    _atom_site_fract_z
    _atom_site_occupancy
    N0      N    0.52763   0.31045   0.85830   1.000
    N1      N    0.02762   0.31044   0.85829   1.000
    N2      N    0.97217   0.68957   0.35816   1.000
    N3      N    0.47239   0.68958   0.35830   1.000
    N4      N    0.27759   0.18957   0.85831   1.000
    N5      N    0.77763   0.18958   0.85830   1.000
    N6      N    0.22237   0.81044   0.35829   1.000
    N7      N    0.72249   0.81045   0.35817   1.000
    Zr8     Zr   0.19183   0.69249   0.99860   1.000
    O9      O    0.22138   0.83332   0.96126   1.000
    O10     O    0.18669   0.73131   0.09703   1.000
    O11     O    0.12763   0.59480   0.96125   1.000
    O12     O    0.20348   0.83196   0.95731   1.000
    O13     O    0.21614   0.54934   0.96121   1.000
    O14     O    0.27277   0.68379   0.09880   1.000
    O15     O    0.28044   0.69681   0.09703   1.000
    O16     O    0.29724   0.59616   0.95731   1.000
    Zr17    Zr   0.69184   0.69248   0.99860   1.000
    O18     O    0.72139   0.83331   0.96126   1.000
    O19     O    0.70349   0.83196   0.95731   1.000
    O20     O    0.71616   0.54934   0.96121   1.000
    O21     O    0.78040   0.69681   0.09700   1.000
    O22     O    0.77272   0.68378   0.09876   1.000
    O23     O    0.79724   0.59616   0.95731   1.000
    O24     O    0.68672   0.73130   0.09700   1.000
    O25     O    0.62764   0.59480   0.96126   1.000
    Zr26    Zr   0.30816   0.30754   0.49861   1.000
    O27     O    0.21955   0.30321   0.59704   1.000
    O28     O    0.22722   0.31624   0.59880   1.000
    O29     O    0.20270   0.40387   0.45728   1.000
    O30     O    0.29650   0.16806   0.45731   1.000
    O31     O    0.31329   0.26872   0.59704   1.000
    O32     O    0.27860   0.16671   0.46126   1.000
    O33     O    0.28384   0.45068   0.46122   1.000
    O34     O    0.37236   0.40522   0.46126   1.000
    Zr35    Zr   0.80816   0.30751   0.49860   1.000
    O36     O    0.81331   0.26870   0.59704   1.000
    O37     O    0.77864   0.16669   0.46122   1.000
    O38     O    0.79654   0.16805   0.45728   1.000
    O39     O    0.78387   0.45066   0.46117   1.000
    O40     O    0.71955   0.30320   0.59704   1.000
    O41     O    0.87231   0.40520   0.46122   1.000
    O42     O    0.70276   0.40385   0.45731   1.000
    O43     O    0.72724   0.31622   0.59880   1.000
    Zr44    Zr   0.44183   0.80754   0.99860   1.000
    O45     O    0.53047   0.80322   0.09700   1.000
    O46     O    0.52280   0.81624   0.09877   1.000
    O47     O    0.37763   0.90523   0.96126   1.000
    O48     O    0.54724   0.90387   0.95731   1.000
    O49     O    0.43670   0.76872   0.09703   1.000
    O50     O    0.45349   0.66807   0.95731   1.000
    O51     O    0.47139   0.66671   0.96126   1.000
    O52     O    0.46616   0.95069   0.96121   1.000
    Zr53    Zr   0.94185   0.80755   0.99860   1.000
    O54     O    0.04724   0.90387   0.95731   1.000
    O55     O    0.93665   0.76872   0.09700   1.000
    O56     O    0.03045   0.80322   0.09703   1.000
    O57     O    0.87765   0.90523   0.96126   1.000
    O58     O    0.02278   0.81624   0.09880   1.000
    O59     O    0.96616   0.95069   0.96121   1.000
    O60     O    0.97139   0.66671   0.96125   1.000
    O61     O    0.95350   0.66807   0.95731   1.000
    Zr62    Zr   0.05815   0.19248   0.49860   1.000
    O63     O    0.96955   0.19680   0.59704   1.000
    O64     O    0.06329   0.23130   0.59703   1.000
    O65     O    0.02855   0.33331   0.46122   1.000
    O66     O    0.12235   0.09480   0.46125   1.000
    O67     O    0.03378   0.04933   0.46118   1.000
    O68     O    0.04645   0.33195   0.45728   1.000
    O69     O    0.97723   0.18378   0.59880   1.000
    O70     O    0.95278   0.09615   0.45728   1.000
    Zr71    Zr   0.55816   0.19248   0.49861   1.000
    O72     O    0.62238   0.09480   0.46123   1.000
    O73     O    0.47722   0.18378   0.59881   1.000
    O74     O    0.56330   0.23131   0.59704   1.000
    O75     O    0.45275   0.09616   0.45731   1.000
    O76     O    0.46954   0.19681   0.59704   1.000
    O77     O    0.53384   0.04934   0.46122   1.000
    O78     O    0.52861   0.33331   0.46126   1.000
    O79     O    0.54651   0.33196   0.45732   1.000
loop_
    _geom_bond_atom_site_label_1
    _geom_bond_atom_site_label_2
    _geom_bond_distance
    _geom_bond_site_symmetry_2
    _ccdc_geom_bond_type
    Zr8    O9        2.93629      .   S
    N4     O9        7.47174  1_545   S
    Zr8    O10       2.70128  1_556   S
    N6     O10       7.07064      .   S
    Zr8    O11       2.33026      .   S
    N1     O11       6.31812      .   S
    Zr8    O12       2.92211      .   S
    N4     O12       7.49197  1_545   S
    Zr8    O13       2.96869      .   S
    N4     O13       7.54306      .   S
    Zr8    O14       2.89395  1_556   S
    N3     O14       7.42513      .   S
    Zr8    O15       2.89555  1_556   S
    N3     O15       7.42594      .   S
    Zr8    O16       2.64913      .   S
    N0     O16       6.98056      .   S
    Zr17   O18       2.93635      .   S
    N5     O18       7.47191  1_545   S
    Zr17   O19       2.92217      .   S
    N5     O19       7.49214  1_545   S
    Zr17   O20       2.96867      .   S
    N5     O20       7.54301      .   S
    Zr17   O21       2.89440  1_556   S
    N2     O21       7.42255      .   S
    Zr17   O22       2.89279  1_556   S
    N2     O22       7.42174      .   S
    Zr17   O23       2.64910      .   S
    N1     O23       6.98050  1_455   S
    Zr17   O24       2.70053  1_556   S
    N7     O24       7.06845      .   S
    Zr17   O25       2.33012      .   S
    N0     O25       6.31801      .   S
    Zr26   O27       2.89543      .   S
    N1     O27       7.42567      .   S
    Zr26   O28       2.89380      .   S
    N1     O28       7.42489      .   S
    Zr26   O29       2.64989      .   S
    N2     O29       6.98247  1_655   S
    Zr26   O30       2.92223      .   S
    N6     O30       7.49228  1_565   S
    Zr26   O31       2.70128      .   S
    N4     O31       7.07076      .   S
    Zr26   O32       2.93641      .   S
    N6     O32       7.47205  1_565   S
    Zr26   O33       2.96870      .   S
    N6     O33       7.54307      .   S
    Zr26   O34       2.33024      .   S
    N3     O34       6.31819      .   S
    Zr35   O36       2.70131      .   S
    N5     O36       7.07076      .   S
    Zr35   O37       2.93637      .   S
    N7     O37       7.47224  1_565   S
    Zr35   O38       2.92224      .   S
    N7     O38       7.49241  1_565   S
    Zr35   O39       2.96904      .   S
    N7     O39       7.54423      .   S
    Zr35   O40       2.89555      .   S
    N0     O40       7.42601      .   S
    Zr35   O41       2.33040      .   S
    N2     O41       6.31898      .   S
    Zr35   O42       2.64916      .   S
    N3     O42       6.98062      .   S
    Zr35   O43       2.89393      .   S
    N0     O43       7.42521      .   S
    Zr44   O45       2.89497  1_556   S
    N7     O45       7.42402      .   S
    Zr44   O46       2.89330  1_556   S
    N7     O46       7.42327      .   S
    Zr44   O47       2.33019      .   S
    N4     O47       6.31803  1_545   S
    Zr44   O48       2.64901      .   S
    N5     O48       6.98025  1_545   S
    Zr44   O49       2.70135  1_556   S
    N3     O49       7.07080      .   S
    Zr44   O50       2.92220      .   S
    N0     O50       7.49230      .   S
    Zr44   O51       2.93640      .   S
    N0     O51       7.47205      .   S
    Zr44   O52       2.96862      .   S
    N0     O52       7.54286  1_545   S
    Zr53   O54       2.64885  1_655   S
    N4     O54       6.97990  1_545   S
    Zr53   O55       2.70052  1_556   S
    N2     O55       7.06806      .   S
    Zr53   O56       2.89545  1_656   S
    N6     O56       7.42570      .   S
    Zr53   O57       2.33014      .   S
    N5     O57       6.31800  1_545   S
    Zr53   O58       2.89383  1_656   S
    N6     O58       7.42490      .   S
    Zr53   O59       2.96861      .   S
    N1     O59       7.54285  1_445   S
    Zr53   O60       2.93648      .   S
    N1     O60       7.47209  1_455   S
    Zr53   O61       2.92225      .   S
    N1     O61       7.49238  1_455   S
    Zr62   O63       2.89551  1_455   S
    N5     O63       7.42592      .   S
    Zr62   O64       2.70129      .   S
    N1     O64       7.07066      .   S
    Zr62   O65       2.93676      .   S
    N2     O65       7.47317  1_655   S
    Zr62   O66       2.33024      .   S
    N6     O66       6.31823  1_565   S
    Zr62   O67       2.96902      .   S
    N2     O67       7.54416  1_665   S
    Zr62   O68       2.92255      .   S
    N2     O68       7.49343  1_655   S
    Zr62   O69       2.89391  1_455   S
    N5     O69       7.42512      .   S
    Zr62   O70       2.64902  1_455   S
    N7     O70       6.98039  1_565   S
    Zr71   O72       2.33080      .   S
    N7     O72       6.31952  1_565   S
    Zr71   O73       2.89392      .   S
    N4     O73       7.42522      .   S
    Zr71   O74       2.70127      .   S
    N0     O74       7.07069      .   S
    Zr71   O75       2.64907      .   S
    N6     O75       6.98039  1_565   S
    Zr71   O76       2.89554      .   S
    N4     O76       7.42601      .   S
    Zr71   O77       2.96870      .   S
    N3     O77       7.54300  1_565   S
    Zr71   O78       2.93638      .   S
    N3     O78       7.47197      .   S
    Zr71   O79       2.92216      .   S
    N3     O79       7.49224      .   S
