# CIF file generated by openbabel 2.4.90, see http://openbabel.sf.net
data_I
_chemical_name_common ''
_cell_length_a 19.797
_cell_length_b 19.8
_cell_length_c 15.418
_cell_angle_alpha 74.151
_cell_angle_beta 74.164
_cell_angle_gamma 82.483
_space_group_name_H-M_alt 'P 1'
_space_group_name_Hall 'P 1'
loop_
    _symmetry_equiv_pos_as_xyz
    x,y,z
loop_
    _atom_site_label
    _atom_site_type_symbol
    _atom_site_fract_x
    _atom_site_fract_y
    _atom_site_fract_z
    _atom_site_occupancy
    Al0     Al   0.46826   0.65877   0.12571   1.000
    Al1     Al   0.96827   0.15877   0.12571   1.000
    Al2     Al   0.96827   0.65877   0.12571   1.000
    Al3     Al   0.31678   0.44041   0.08138   1.000
    Al4     Al   0.31678   0.94040   0.08138   1.000
    Al5     Al   0.81678   0.44041   0.08138   1.000
    Al6     Al   0.81678   0.94040   0.08138   1.000
    Al7     Al   0.01677   0.40195   0.16700   1.000
    Al8     Al   0.01678   0.90194   0.16700   1.000
    Al9     Al   0.51678   0.40195   0.16700   1.000
    Al10    Al   0.51678   0.90194   0.16700   1.000
    Al11    Al   0.34123   0.03173   0.37426   1.000
    Al12    Al   0.34123   0.53173   0.37426   1.000
    Al13    Al   0.84123   0.03173   0.37426   1.000
    Al14    Al   0.84124   0.53173   0.37426   1.000
    Al15    Al   0.05959   0.18323   0.41858   1.000
    Al16    Al   0.05960   0.68323   0.41858   1.000
    Al17    Al   0.55960   0.18323   0.41858   1.000
    Al18    Al   0.55960   0.68323   0.41858   1.000
    Al19    Al   0.09805   0.48320   0.33304   1.000
    Al20    Al   0.09805   0.98320   0.33304   1.000
    Al21    Al   0.59805   0.48320   0.33304   1.000
    Al22    Al   0.59805   0.98320   0.33304   1.000
    Al23    Al   0.03175   0.34122   0.87430   1.000
    Al24    Al   0.03175   0.84122   0.87430   1.000
    Al25    Al   0.53175   0.34122   0.87430   1.000
    Al26    Al   0.53175   0.84122   0.87430   1.000
    Al27    Al   0.18323   0.05959   0.91863   1.000
    Al28    Al   0.18323   0.55958   0.91863   1.000
    Al29    Al   0.68323   0.05959   0.91863   1.000
    Al30    Al   0.68324   0.55958   0.91863   1.000
    Al31    Al   0.48323   0.09805   0.83301   1.000
    Al32    Al   0.46826   0.15877   0.12571   1.000
    Al33    Al   0.48324   0.59805   0.83301   1.000
    Al34    Al   0.98324   0.09805   0.83301   1.000
    Al35    Al   0.98324   0.59805   0.83301   1.000
    Al36    Al   0.15878   0.46826   0.62574   1.000
    Al37    Al   0.15878   0.96826   0.62574   1.000
    Al38    Al   0.65878   0.46826   0.62574   1.000
    Al39    Al   0.65878   0.96826   0.62574   1.000
    Al40    Al   0.44042   0.31677   0.58140   1.000
    Al41    Al   0.44042   0.81676   0.58140   1.000
    Al42    Al   0.94042   0.31677   0.58140   1.000
    Al43    Al   0.94042   0.81676   0.58140   1.000
    Al44    Al   0.40196   0.01679   0.66696   1.000
    Al45    Al   0.40197   0.51679   0.66696   1.000
    Al46    Al   0.90197   0.01679   0.66696   1.000
    Al47    Al   0.90197   0.51679   0.66696   1.000
    Ts48    Ts   0.45419   0.68690   0.12205   1.000
    Ts49    Ts   0.44703   0.63936   0.12951   1.000
    Ts50    Ts   0.47980   0.65017   0.15851   1.000
    Ts51    Ts   0.49175   0.65813   0.09323   1.000
    Ts52    Ts   0.95419   0.18691   0.12205   1.000
    Ts53    Ts   0.94703   0.13937   0.12951   1.000
    Ts54    Ts   0.97980   0.15017   0.15851   1.000
    Ts55    Ts   0.99175   0.15813   0.09323   1.000
    Ts56    Ts   0.95419   0.68690   0.12205   1.000
    Ts57    Ts   0.94704   0.63936   0.12951   1.000
    Ts58    Ts   0.97980   0.65017   0.15851   1.000
    Ts59    Ts   0.99175   0.65813   0.09323   1.000
    Ts60    Ts   0.32454   0.46235   0.09516   1.000
    Ts61    Ts   0.28700   0.43529   0.09861   1.000
    Ts62    Ts   0.33389   0.41449   0.09147   1.000
    Ts63    Ts   0.32115   0.44978   0.04096   1.000
    Ts64    Ts   0.32454   0.96235   0.09516   1.000
    Ts65    Ts   0.28701   0.93528   0.09861   1.000
    Ts66    Ts   0.33389   0.91449   0.09147   1.000
    Ts67    Ts   0.32115   0.94977   0.04096   1.000
    Ts68    Ts   0.82454   0.46235   0.09516   1.000
    Ts69    Ts   0.78701   0.43529   0.09861   1.000
    Ts70    Ts   0.83389   0.41449   0.09147   1.000
    Ts71    Ts   0.82115   0.44978   0.04096   1.000
    Ts72    Ts   0.82454   0.96235   0.09516   1.000
    Ts73    Ts   0.78701   0.93528   0.09861   1.000
    Ts74    Ts   0.83389   0.91449   0.09147   1.000
    Ts75    Ts   0.82116   0.94977   0.04096   1.000
    Ts76    Ts   0.04647   0.40780   0.15071   1.000
    Ts77    Ts   0.00977   0.38090   0.15110   1.000
    Ts78    Ts   0.99969   0.42817   0.15750   1.000
    Ts79    Ts   0.01169   0.39229   0.20746   1.000
    Ts80    Ts   0.04647   0.90779   0.15071   1.000
    Ts81    Ts   0.00977   0.88089   0.15113   1.000
    Ts82    Ts   0.99969   0.92816   0.15750   1.000
    Ts83    Ts   0.01170   0.89229   0.20746   1.000
    Ts84    Ts   0.54647   0.40780   0.15071   1.000
    Ts85    Ts   0.50977   0.38090   0.15113   1.000
    Ts86    Ts   0.49969   0.42817   0.15750   1.000
    Ts87    Ts   0.51170   0.39229   0.20746   1.000
    Ts88    Ts   0.54648   0.90779   0.15071   1.000
    Ts89    Ts   0.50978   0.88089   0.15113   1.000
    Ts90    Ts   0.49970   0.92816   0.15750   1.000
    Ts91    Ts   0.51170   0.89229   0.20746   1.000
    Ts92    Ts   0.34981   0.02021   0.34143   1.000
    Ts93    Ts   0.31309   0.04580   0.37797   1.000
    Ts94    Ts   0.36064   0.05297   0.37044   1.000
    Ts95    Ts   0.34191   0.00823   0.40674   1.000
    Ts96    Ts   0.34981   0.52020   0.34143   1.000
    Ts97    Ts   0.31309   0.54579   0.37797   1.000
    Ts98    Ts   0.36064   0.55296   0.37044   1.000
    Ts99    Ts   0.34191   0.50823   0.40674   1.000
    Ts100   Ts   0.84982   0.02021   0.34143   1.000
    Ts101   Ts   0.81309   0.04580   0.37797   1.000
    Ts102   Ts   0.86064   0.05297   0.37044   1.000
    Ts103   Ts   0.84191   0.00823   0.40674   1.000
    Ts104   Ts   0.84982   0.52020   0.34143   1.000
    Ts105   Ts   0.81310   0.54579   0.37797   1.000
    Ts106   Ts   0.86064   0.55296   0.37044   1.000
    Ts107   Ts   0.84191   0.50823   0.40674   1.000
    Ts108   Ts   0.03765   0.17547   0.40479   1.000
    Ts109   Ts   0.06471   0.21301   0.40136   1.000
    Ts110   Ts   0.08550   0.16612   0.40849   1.000
    Ts111   Ts   0.05022   0.17886   0.45901   1.000
    Ts112   Ts   0.03765   0.67546   0.40479   1.000
    Ts113   Ts   0.06471   0.71300   0.40136   1.000
    Ts114   Ts   0.08551   0.66612   0.40849   1.000
    Ts115   Ts   0.05022   0.67886   0.45901   1.000
    Ts116   Ts   0.53765   0.17547   0.40479   1.000
    Ts117   Ts   0.56471   0.21301   0.40136   1.000
    Ts118   Ts   0.58551   0.16612   0.40849   1.000
    Ts119   Ts   0.55023   0.17886   0.45901   1.000
    Ts120   Ts   0.53765   0.67546   0.40479   1.000
    Ts121   Ts   0.56471   0.71300   0.40136   1.000
    Ts122   Ts   0.58551   0.66612   0.40849   1.000
    Ts123   Ts   0.55023   0.67886   0.45901   1.000
    Ts124   Ts   0.10771   0.48827   0.29258   1.000
    Ts125   Ts   0.09220   0.45351   0.34933   1.000
    Ts126   Ts   0.11909   0.49021   0.34892   1.000
    Ts127   Ts   0.07183   0.50029   0.34254   1.000
    Ts128   Ts   0.10771   0.98827   0.29256   1.000
    Ts129   Ts   0.09220   0.95350   0.34933   1.000
    Ts130   Ts   0.11910   0.99021   0.34892   1.000
    Ts131   Ts   0.07183   0.00029   0.34254   1.000
    Ts132   Ts   0.60771   0.48827   0.29256   1.000
    Ts133   Ts   0.59220   0.45351   0.34933   1.000
    Ts134   Ts   0.61910   0.49021   0.34892   1.000
    Ts135   Ts   0.57183   0.50029   0.34254   1.000
    Ts136   Ts   0.60771   0.98827   0.29256   1.000
    Ts137   Ts   0.59220   0.95350   0.34933   1.000
    Ts138   Ts   0.61910   0.99021   0.34892   1.000
    Ts139   Ts   0.57183   0.00029   0.34254   1.000
    Ts140   Ts   0.00826   0.34186   0.90678   1.000
    Ts141   Ts   0.04582   0.31309   0.87796   1.000
    Ts142   Ts   0.05298   0.36063   0.87020   1.000
    Ts143   Ts   0.02021   0.34982   0.84147   1.000
    Ts144   Ts   0.00826   0.84186   0.90678   1.000
    Ts145   Ts   0.04583   0.81308   0.87796   1.000
    Ts146   Ts   0.05298   0.86062   0.87020   1.000
    Ts147   Ts   0.02021   0.84982   0.84147   1.000
    Ts148   Ts   0.50826   0.34186   0.90678   1.000
    Ts149   Ts   0.54583   0.31309   0.87796   1.000
    Ts150   Ts   0.55298   0.36063   0.87020   1.000
    Ts151   Ts   0.52021   0.34982   0.84147   1.000
    Ts152   Ts   0.54583   0.81308   0.87796   1.000
    Ts153   Ts   0.50826   0.84186   0.90678   1.000
    Ts154   Ts   0.55298   0.86062   0.87020   1.000
    Ts155   Ts   0.52021   0.84982   0.84147   1.000
    Ts156   Ts   0.17547   0.03764   0.90485   1.000
    Ts157   Ts   0.17886   0.05022   0.95905   1.000
    Ts158   Ts   0.21301   0.06471   0.90140   1.000
    Ts159   Ts   0.16612   0.08550   0.90854   1.000
    Ts160   Ts   0.17547   0.53764   0.90482   1.000
    Ts161   Ts   0.17886   0.55022   0.95905   1.000
    Ts162   Ts   0.21301   0.56470   0.90140   1.000
    Ts163   Ts   0.16613   0.58550   0.90854   1.000
    Ts164   Ts   0.67886   0.05022   0.95905   1.000
    Ts165   Ts   0.67548   0.03764   0.90482   1.000
    Ts166   Ts   0.71301   0.06471   0.90140   1.000
    Ts167   Ts   0.66613   0.08550   0.90854   1.000
    Ts168   Ts   0.67548   0.53764   0.90485   1.000
    Ts169   Ts   0.67886   0.55022   0.95905   1.000
    Ts170   Ts   0.71301   0.56470   0.90140   1.000
    Ts171   Ts   0.66613   0.58550   0.90854   1.000
    Ts172   Ts   0.45354   0.09220   0.84929   1.000
    Ts173   Ts   0.49024   0.11910   0.84888   1.000
    Ts174   Ts   0.50032   0.07183   0.84251   1.000
    Ts175   Ts   0.48832   0.10770   0.79255   1.000
    Ts176   Ts   0.45419   0.18691   0.12205   1.000
    Ts177   Ts   0.44703   0.13937   0.12951   1.000
    Ts178   Ts   0.47980   0.15017   0.15851   1.000
    Ts179   Ts   0.49175   0.15813   0.09323   1.000
    Ts180   Ts   0.45354   0.59219   0.84929   1.000
    Ts181   Ts   0.49024   0.61909   0.84888   1.000
    Ts182   Ts   0.50032   0.57182   0.84251   1.000
    Ts183   Ts   0.48832   0.60770   0.79255   1.000
    Ts184   Ts   0.95354   0.09220   0.84929   1.000
    Ts185   Ts   0.99024   0.11910   0.84888   1.000
    Ts186   Ts   0.00032   0.07183   0.84251   1.000
    Ts187   Ts   0.98832   0.10770   0.79255   1.000
    Ts188   Ts   0.95354   0.59219   0.84929   1.000
    Ts189   Ts   0.99024   0.61909   0.84888   1.000
    Ts190   Ts   0.00032   0.57182   0.84251   1.000
    Ts191   Ts   0.98832   0.60770   0.79255   1.000
    Ts192   Ts   0.13937   0.44703   0.62956   1.000
    Ts193   Ts   0.15810   0.49176   0.59327   1.000
    Ts194   Ts   0.15020   0.47979   0.65857   1.000
    Ts195   Ts   0.18692   0.45420   0.62203   1.000
    Ts196   Ts   0.13937   0.94702   0.62956   1.000
    Ts197   Ts   0.15810   0.99176   0.59327   1.000
    Ts198   Ts   0.15020   0.97978   0.65857   1.000
    Ts199   Ts   0.18692   0.95419   0.62203   1.000
    Ts200   Ts   0.63937   0.44703   0.62956   1.000
    Ts201   Ts   0.65810   0.49176   0.59327   1.000
    Ts202   Ts   0.65020   0.47979   0.65857   1.000
    Ts203   Ts   0.68692   0.45420   0.62203   1.000
    Ts204   Ts   0.63938   0.94702   0.62956   1.000
    Ts205   Ts   0.65810   0.99176   0.59327   1.000
    Ts206   Ts   0.65020   0.97978   0.65857   1.000
    Ts207   Ts   0.68692   0.95419   0.62203   1.000
    Ts208   Ts   0.44979   0.32113   0.54098   1.000
    Ts209   Ts   0.46236   0.32453   0.59520   1.000
    Ts210   Ts   0.43530   0.28699   0.59860   1.000
    Ts211   Ts   0.41450   0.33388   0.59149   1.000
    Ts212   Ts   0.44979   0.82113   0.54098   1.000
    Ts213   Ts   0.46236   0.82452   0.59520   1.000
    Ts214   Ts   0.43531   0.78698   0.59860   1.000
    Ts215   Ts   0.41451   0.83387   0.59149   1.000
    Ts216   Ts   0.94979   0.32113   0.54098   1.000
    Ts217   Ts   0.96236   0.32453   0.59520   1.000
    Ts218   Ts   0.93531   0.28699   0.59860   1.000
    Ts219   Ts   0.91451   0.33388   0.59149   1.000
    Ts220   Ts   0.94979   0.82113   0.54098   1.000
    Ts221   Ts   0.96236   0.82452   0.59520   1.000
    Ts222   Ts   0.93531   0.78698   0.59860   1.000
    Ts223   Ts   0.91451   0.83387   0.59149   1.000
    Ts224   Ts   0.39230   0.01172   0.70742   1.000
    Ts225   Ts   0.40781   0.04649   0.65068   1.000
    Ts226   Ts   0.38092   0.00978   0.65107   1.000
    Ts227   Ts   0.42818   0.99970   0.65747   1.000
    Ts228   Ts   0.38092   0.50978   0.65108   1.000
    Ts229   Ts   0.39230   0.51172   0.70742   1.000
    Ts230   Ts   0.40782   0.54648   0.65068   1.000
    Ts231   Ts   0.42819   0.49970   0.65747   1.000
    Ts232   Ts   0.89230   0.01172   0.70742   1.000
    Ts233   Ts   0.90782   0.04649   0.65068   1.000
    Ts234   Ts   0.88092   0.00978   0.65108   1.000
    Ts235   Ts   0.92819   0.99970   0.65747   1.000
    Ts236   Ts   0.89231   0.51172   0.70742   1.000
    Ts237   Ts   0.90782   0.54648   0.65068   1.000
    Ts238   Ts   0.88092   0.50978   0.65107   1.000
    Ts239   Ts   0.92819   0.49970   0.65747   1.000
loop_
    _geom_bond_atom_site_label_1
    _geom_bond_atom_site_label_2
    _geom_bond_distance
    _geom_bond_site_symmetry_2
    _ccdc_geom_bond_type
    Al0    Ts48      0.58472      .   S
    Al0    Ts49      0.58676      .   S
    Al0    Ts50      0.58541      .   S
    Al0    Ts51      0.58485      .   S
    Al1    Ts52      0.58473      .   S
    Al1    Ts53      0.58677      .   S
    Al1    Ts54      0.58538      .   S
    Al1    Ts55      0.58483      .   S
    Al2    Ts56      0.58472      .   S
    Al2    Ts57      0.58676      .   S
    Al2    Ts58      0.58538      .   S
    Al2    Ts59      0.58483      .   S
    Al3    Ts60      0.58586      .   S
    Al3    Ts61      0.58630      .   S
    Al3    Ts62      0.58468      .   S
    Al3    Ts63      0.58476      .   S
    Al4    Ts64      0.58590      .   S
    Al4    Ts65      0.58629      .   S
    Al4    Ts66      0.58468      .   S
    Al4    Ts67      0.58476      .   S
    Al5    Ts68      0.58586      .   S
    Al5    Ts69      0.58630      .   S
    Al5    Ts70      0.58468      .   S
    Al5    Ts71      0.58476      .   S
    Al6    Ts72      0.58591      .   S
    Al6    Ts73      0.58629      .   S
    Al6    Ts74      0.58468      .   S
    Al6    Ts75      0.58476      .   S
    Al7    Ts76      0.58602      .   S
    Al7    Ts77      0.58521      .   S
    Al7    Ts78      0.58732  1_455   S
    Al7    Ts79      0.58439      .   S
    Al8    Ts80      0.58603      .   S
    Al8    Ts81      0.58493      .   S
    Al8    Ts82      0.58732  1_455   S
    Al8    Ts83      0.58439      .   S
    Al9    Ts84      0.58602      .   S
    Al9    Ts85      0.58495      .   S
    Al9    Ts86      0.58735      .   S
    Al9    Ts87      0.58439      .   S
    Al10   Ts88      0.58602      .   S
    Al10   Ts89      0.58495      .   S
    Al10   Ts90      0.58735      .   S
    Al10   Ts91      0.58439      .   S
    Al11   Ts92      0.58581      .   S
    Al11   Ts93      0.58473      .   S
    Al11   Ts94      0.58676      .   S
    Al11   Ts95      0.58496      .   S
    Al12   Ts96      0.58577      .   S
    Al12   Ts97      0.58473      .   S
    Al12   Ts98      0.58675      .   S
    Al12   Ts99      0.58492      .   S
    Al13   Ts100     0.58581      .   S
    Al13   Ts101     0.58473      .   S
    Al13   Ts102     0.58676      .   S
    Al13   Ts103     0.58497      .   S
    Al14   Ts104     0.58577      .   S
    Al14   Ts105     0.58473      .   S
    Al14   Ts106     0.58675      .   S
    Al14   Ts107     0.58492      .   S
    Al15   Ts108     0.58589      .   S
    Al15   Ts109     0.58631      .   S
    Al15   Ts110     0.58471      .   S
    Al15   Ts111     0.58484      .   S
    Al16   Ts112     0.58588      .   S
    Al16   Ts113     0.58631      .   S
    Al16   Ts114     0.58471      .   S
    Al16   Ts115     0.58484      .   S
    Al17   Ts116     0.58592      .   S
    Al17   Ts117     0.58630      .   S
    Al17   Ts118     0.58471      .   S
    Al17   Ts119     0.58484      .   S
    Al18   Ts120     0.58593      .   S
    Al18   Ts121     0.58631      .   S
    Al18   Ts122     0.58471      .   S
    Al18   Ts123     0.58484      .   S
    Al19   Ts124     0.58433      .   S
    Al19   Ts125     0.58601      .   S
    Al19   Ts126     0.58499      .   S
    Al19   Ts127     0.58734      .   S
    Al20   Ts128     0.58467      .   S
    Al20   Ts129     0.58602      .   S
    Al20   Ts130     0.58499      .   S
    Al20   Ts131     0.58740  1_565   S
    Al21   Ts132     0.58467      .   S
    Al21   Ts133     0.58602      .   S
    Al21   Ts134     0.58498      .   S
    Al21   Ts135     0.58734      .   S
    Al22   Ts136     0.58467      .   S
    Al22   Ts137     0.58602      .   S
    Al22   Ts138     0.58498      .   S
    Al22   Ts139     0.58740  1_565   S
    Al23   Ts140     0.58483      .   S
    Al23   Ts141     0.58473      .   S
    Al23   Ts142     0.58551      .   S
    Al23   Ts143     0.58580      .   S
    Al24   Ts144     0.58483      .   S
    Al24   Ts145     0.58473      .   S
    Al24   Ts146     0.58551      .   S
    Al24   Ts147     0.58580      .   S
    Al25   Ts148     0.58485      .   S
    Al25   Ts149     0.58473      .   S
    Al25   Ts150     0.58552      .   S
    Al25   Ts151     0.58582      .   S
    Al26   Ts152     0.58473      .   S
    Al26   Ts153     0.58485      .   S
    Al26   Ts154     0.58551      .   S
    Al26   Ts155     0.58582      .   S
    Al27   Ts156     0.58594      .   S
    Al27   Ts157     0.58476      .   S
    Al27   Ts158     0.58630      .   S
    Al27   Ts159     0.58468      .   S
    Al28   Ts160     0.58616      .   S
    Al28   Ts161     0.58476      .   S
    Al28   Ts162     0.58629      .   S
    Al28   Ts163     0.58468      .   S
    Al29   Ts164     0.58476      .   S
    Al29   Ts165     0.58620      .   S
    Al29   Ts166     0.58630      .   S
    Al29   Ts167     0.58468      .   S
    Al30   Ts168     0.58590      .   S
    Al30   Ts169     0.58476      .   S
    Al30   Ts170     0.58629      .   S
    Al30   Ts171     0.58468      .   S
    Al31   Ts172     0.58602      .   S
    Al31   Ts173     0.58495      .   S
    Al31   Ts174     0.58734      .   S
    Al31   Ts175     0.58438      .   S
    Al32   Ts176     0.58473      .   S
    Al32   Ts177     0.58677      .   S
    Al32   Ts178     0.58541      .   S
    Al32   Ts179     0.58485      .   S
    Al33   Ts180     0.58602      .   S
    Al33   Ts181     0.58495      .   S
    Al33   Ts182     0.58734      .   S
    Al33   Ts183     0.58439      .   S
    Al34   Ts184     0.58602      .   S
    Al34   Ts185     0.58493      .   S
    Al34   Ts186     0.58732  1_655   S
    Al34   Ts187     0.58438      .   S
    Al35   Ts188     0.58602      .   S
    Al35   Ts189     0.58493      .   S
    Al35   Ts190     0.58732  1_655   S
    Al35   Ts191     0.58438      .   S
    Al36   Ts192     0.58674      .   S
    Al36   Ts193     0.58489      .   S
    Al36   Ts194     0.58581      .   S
    Al36   Ts195     0.58473      .   S
    Al37   Ts196     0.58674      .   S
    Al37   Ts197     0.58493      .   S
    Al37   Ts198     0.58585      .   S
    Al37   Ts199     0.58473      .   S
    Al38   Ts200     0.58674      .   S
    Al38   Ts201     0.58489      .   S
    Al38   Ts202     0.58581      .   S
    Al38   Ts203     0.58473      .   S
    Al39   Ts204     0.58674      .   S
    Al39   Ts205     0.58493      .   S
    Al39   Ts206     0.58585      .   S
    Al39   Ts207     0.58473      .   S
    Al40   Ts208     0.58470      .   S
    Al40   Ts209     0.58599      .   S
    Al40   Ts210     0.58627      .   S
    Al40   Ts211     0.58471      .   S
    Al41   Ts212     0.58470      .   S
    Al41   Ts213     0.58599      .   S
    Al41   Ts214     0.58627      .   S
    Al41   Ts215     0.58471      .   S
    Al42   Ts216     0.58470      .   S
    Al42   Ts217     0.58596      .   S
    Al42   Ts218     0.58627      .   S
    Al42   Ts219     0.58471      .   S
    Al43   Ts220     0.58470      .   S
    Al43   Ts221     0.58595      .   S
    Al43   Ts222     0.58627      .   S
    Al43   Ts223     0.58471      .   S
    Al44   Ts224     0.58438      .   S
    Al44   Ts225     0.58602      .   S
    Al44   Ts226     0.58505      .   S
    Al44   Ts227     0.58739  1_545   S
    Al45   Ts228     0.58499      .   S
    Al45   Ts229     0.58438      .   S
    Al45   Ts230     0.58601      .   S
    Al45   Ts231     0.58733      .   S
    Al46   Ts232     0.58438      .   S
    Al46   Ts233     0.58602      .   S
    Al46   Ts234     0.58498      .   S
    Al46   Ts235     0.58739  1_545   S
    Al47   Ts236     0.58438      .   S
    Al47   Ts237     0.58602      .   S
    Al47   Ts238     0.58506      .   S
    Al47   Ts239     0.58733      .   S
