# CIF file generated by openbabel 2.4.90, see http://openbabel.sf.net
data_I
_chemical_name_common ''
_cell_length_a 19.797
_cell_length_b 19.8
_cell_length_c 15.418
_cell_angle_alpha 74.151
_cell_angle_beta 74.164
_cell_angle_gamma 82.483
_space_group_name_H-M_alt 'P 1'
_space_group_name_Hall 'P 1'
loop_
    _symmetry_equiv_pos_as_xyz
    x,y,z
loop_
    _atom_site_label
    _atom_site_type_symbol
    _atom_site_fract_x
    _atom_site_fract_y
    _atom_site_fract_z
    _atom_site_occupancy
    Zr0     Zr   0.46826   0.15877   0.12571   1.000
    Zr1     Zr   0.46826   0.65877   0.12571   1.000
    Zr2     Zr   0.96827   0.15877   0.12571   1.000
    Zr3     Zr   0.96827   0.65877   0.12571   1.000
    Zr4     Zr   0.31678   0.44041   0.08138   1.000
    Zr5     Zr   0.31678   0.94040   0.08138   1.000
    Zr6     Zr   0.81678   0.44041   0.08138   1.000
    Zr7     Zr   0.81678   0.94040   0.08138   1.000
    Zr8     Zr   0.01677   0.40195   0.16700   1.000
    Zr9     Zr   0.01678   0.90194   0.16700   1.000
    Zr10    Zr   0.51678   0.40195   0.16700   1.000
    Zr11    Zr   0.51678   0.90194   0.16700   1.000
    Zr12    Zr   0.34123   0.03173   0.37426   1.000
    Zr13    Zr   0.34123   0.53173   0.37426   1.000
    Zr14    Zr   0.84123   0.03173   0.37426   1.000
    Zr15    Zr   0.84124   0.53173   0.37426   1.000
    Zr16    Zr   0.05959   0.18323   0.41858   1.000
    Zr17    Zr   0.05960   0.68323   0.41858   1.000
    Zr18    Zr   0.55960   0.18323   0.41858   1.000
    Zr19    Zr   0.55960   0.68323   0.41858   1.000
    Zr20    Zr   0.09805   0.48320   0.33304   1.000
    Zr21    Zr   0.09805   0.98320   0.33304   1.000
    Zr22    Zr   0.59805   0.48320   0.33304   1.000
    Zr23    Zr   0.59805   0.98320   0.33304   1.000
    Zr24    Zr   0.03175   0.34122   0.87430   1.000
    Zr25    Zr   0.03175   0.84122   0.87430   1.000
    Zr26    Zr   0.53175   0.34122   0.87430   1.000
    Zr27    Zr   0.53175   0.84122   0.87430   1.000
    Zr28    Zr   0.18323   0.05959   0.91863   1.000
    Zr29    Zr   0.18323   0.55958   0.91863   1.000
    Zr30    Zr   0.68323   0.05959   0.91863   1.000
    Zr31    Zr   0.68324   0.55958   0.91863   1.000
    Zr32    Zr   0.48323   0.09805   0.83301   1.000
    Zr33    Zr   0.48324   0.59805   0.83301   1.000
    Zr34    Zr   0.98324   0.09805   0.83301   1.000
    Zr35    Zr   0.98324   0.59805   0.83301   1.000
    Zr36    Zr   0.15878   0.46826   0.62574   1.000
    Zr37    Zr   0.15878   0.96826   0.62574   1.000
    Zr38    Zr   0.65878   0.46826   0.62574   1.000
    Zr39    Zr   0.65878   0.96826   0.62574   1.000
    Zr40    Zr   0.44042   0.31677   0.58140   1.000
    Zr41    Zr   0.44042   0.81676   0.58140   1.000
    Zr42    Zr   0.94042   0.31677   0.58140   1.000
    Zr43    Zr   0.94042   0.81676   0.58140   1.000
    Zr44    Zr   0.40196   0.01679   0.66696   1.000
    Zr45    Zr   0.40197   0.51679   0.66696   1.000
    Zr46    Zr   0.90197   0.01679   0.66696   1.000
    Zr47    Zr   0.90197   0.51679   0.66696   1.000
    N48     N    0.65761   0.96857   0.12568   1.000
    O49     O    0.63508   0.97969   0.19900   1.000
    O50     O    0.71487   0.95065   0.11645   1.000
    O51     O    0.66714   0.00705   0.05247   1.000
    O52     O    0.60947   0.93964   0.13413   1.000
    N53     N    0.97891   0.10570   0.33133   1.000
    O54     O    0.01882   0.05727   0.33931   1.000
    O55     O    0.98224   0.12579   0.25312   1.000
    O56     O    0.00280   0.13864   0.36461   1.000
    O57     O    0.92463   0.08464   0.34993   1.000
    N58     N    0.53142   0.84239   0.37434   1.000
    O59     O    0.52029   0.86492   0.30102   1.000
    O60     O    0.54934   0.78514   0.38355   1.000
    O61     O    0.49294   0.83285   0.44756   1.000
    O62     O    0.56035   0.89052   0.36591   1.000
    N63     N    0.53141   0.34239   0.37434   1.000
    O64     O    0.52028   0.36493   0.30102   1.000
    O65     O    0.54934   0.28514   0.38355   1.000
    O66     O    0.49294   0.33286   0.44756   1.000
    O67     O    0.56034   0.39053   0.36591   1.000
    N68     N    0.03141   0.84239   0.37434   1.000
    O69     O    0.04934   0.78514   0.38355   1.000
    O70     O    0.99295   0.83285   0.44756   1.000
    O71     O    0.06034   0.89052   0.36591   1.000
    O72     O    0.02028   0.86492   0.30102   1.000
    N73     N    0.60573   0.97889   0.83120   1.000
    O74     O    0.58466   0.92461   0.84968   1.000
    O75     O    0.62582   0.98222   0.75310   1.000
    O76     O    0.55729   0.01880   0.83923   1.000
    O77     O    0.63866   0.00278   0.86456   1.000
    N78     N    0.32203   0.43786   0.57925   1.000
    O79     O    0.34621   0.47207   0.61120   1.000
    O80     O    0.33214   0.46717   0.50111   1.000
    O81     O    0.36179   0.39015   0.58790   1.000
    O82     O    0.26151   0.44251   0.59971   1.000
    N83     N    0.32203   0.93786   0.57925   1.000
    O84     O    0.26151   0.94251   0.59971   1.000
    O85     O    0.34621   0.97207   0.61119   1.000
    O86     O    0.33214   0.96717   0.50111   1.000
    O87     O    0.36179   0.89014   0.58789   1.000
    N88     N    0.96860   0.15760   0.62565   1.000
    O89     O    0.93967   0.10947   0.63409   1.000
    O90     O    0.97973   0.13507   0.69898   1.000
    O91     O    0.00707   0.16714   0.55244   1.000
    O92     O    0.95068   0.21485   0.61643   1.000
    N93     N    0.89429   0.02110   0.16861   1.000
    O94     O    0.91535   0.07538   0.15001   1.000
    O95     O    0.94272   0.98119   0.16068   1.000
    O96     O    0.87420   0.01777   0.24681   1.000
    O97     O    0.86136   0.99721   0.13533   1.000
    N98     N    0.15761   0.96857   0.12568   1.000
    O99     O    0.16714   0.00705   0.05247   1.000
    O100    O    0.21486   0.95065   0.11645   1.000
    O101    O    0.10946   0.93964   0.13413   1.000
    O102    O    0.13508   0.97969   0.19900   1.000
    N103    N    0.34241   0.53142   0.87431   1.000
    O104    O    0.39055   0.56034   0.86587   1.000
    O105    O    0.28515   0.54934   0.88355   1.000
    O106    O    0.33287   0.49294   0.94753   1.000
    O107    O    0.36494   0.52030   0.80098   1.000
    N108    N    0.15761   0.46857   0.12570   1.000
    O109    O    0.16714   0.50705   0.05248   1.000
    O110    O    0.21486   0.45065   0.11646   1.000
    O111    O    0.10946   0.43965   0.13413   1.000
    O112    O    0.13507   0.47969   0.19903   1.000
    N113    N    0.02110   0.39430   0.66866   1.000
    O114    O    0.01777   0.37421   0.74686   1.000
    O115    O    0.07538   0.41535   0.65006   1.000
    O116    O    0.98120   0.44273   0.66069   1.000
    O117    O    0.99721   0.36135   0.63538   1.000
    N118    N    0.06214   0.67801   0.92071   1.000
    O119    O    0.03282   0.66791   0.99885   1.000
    O120    O    0.10986   0.63823   0.91211   1.000
    O121    O    0.05750   0.73851   0.90025   1.000
    O122    O    0.02794   0.65381   0.88877   1.000
    N123    N    0.34240   0.03142   0.87431   1.000
    O124    O    0.39055   0.06035   0.86587   1.000
    O125    O    0.33287   0.99294   0.94753   1.000
    O126    O    0.28515   0.04934   0.88355   1.000
    O127    O    0.36494   0.02030   0.80098   1.000
    N128    N    0.02110   0.89429   0.66866   1.000
    O129    O    0.98120   0.94272   0.66069   1.000
    O130    O    0.07538   0.91535   0.65006   1.000
    O131    O    0.99722   0.86135   0.63538   1.000
    O132    O    0.01777   0.87421   0.74686   1.000
    N133    N    0.96860   0.65760   0.62565   1.000
    O134    O    0.00707   0.66714   0.55244   1.000
    O135    O    0.97973   0.63506   0.69898   1.000
    O136    O    0.93967   0.60946   0.63409   1.000
    O137    O    0.95068   0.71485   0.61643   1.000
    N138    N    0.17798   0.56213   0.42075   1.000
    O139    O    0.13822   0.60984   0.41210   1.000
    O140    O    0.15380   0.52792   0.38881   1.000
    O141    O    0.16787   0.53282   0.49889   1.000
    O142    O    0.23850   0.55748   0.40029   1.000
    N143    N    0.67798   0.06213   0.42075   1.000
    O144    O    0.65380   0.02792   0.38881   1.000
    O145    O    0.63822   0.10985   0.41210   1.000
    O146    O    0.66787   0.03282   0.49889   1.000
    O147    O    0.73850   0.05748   0.40029   1.000
    N148    N    0.67798   0.56213   0.42075   1.000
    O149    O    0.66787   0.53282   0.49889   1.000
    O150    O    0.65380   0.52792   0.38881   1.000
    O151    O    0.63822   0.60984   0.41210   1.000
    O152    O    0.73850   0.55748   0.40029   1.000
    N153    N    0.60573   0.47889   0.83122   1.000
    O154    O    0.58466   0.42461   0.84968   1.000
    O155    O    0.63866   0.50278   0.86459   1.000
    O156    O    0.55729   0.51880   0.83924   1.000
    O157    O    0.62582   0.48222   0.75310   1.000
    N158    N    0.03141   0.34239   0.37434   1.000
    O159    O    0.06034   0.39053   0.36591   1.000
    O160    O    0.04934   0.28514   0.38355   1.000
    O161    O    0.99294   0.33285   0.44756   1.000
    O162    O    0.02028   0.36493   0.30102   1.000
    N163    N    0.52110   0.39430   0.66866   1.000
    O164    O    0.57538   0.41535   0.65006   1.000
    O165    O    0.48120   0.44273   0.66069   1.000
    O166    O    0.51777   0.37421   0.74686   1.000
    O167    O    0.49721   0.36135   0.63538   1.000
    N168    N    0.06214   0.17801   0.92071   1.000
    O169    O    0.05750   0.23852   0.90025   1.000
    O170    O    0.10985   0.13824   0.91211   1.000
    O171    O    0.02794   0.15382   0.88877   1.000
    O172    O    0.03282   0.16791   0.99885   1.000
    N173    N    0.56215   0.67801   0.92071   1.000
    O174    O    0.52794   0.65381   0.88877   1.000
    O175    O    0.55751   0.73851   0.90025   1.000
    O176    O    0.53282   0.66791   0.99885   1.000
    O177    O    0.60986   0.63823   0.91211   1.000
    N178    N    0.39429   0.52110   0.16861   1.000
    O179    O    0.37420   0.51777   0.24681   1.000
    O180    O    0.44272   0.48119   0.16068   1.000
    O181    O    0.36135   0.49721   0.13533   1.000
    O182    O    0.41535   0.57538   0.15001   1.000
    N183    N    0.56214   0.17801   0.92071   1.000
    O184    O    0.55750   0.23852   0.90025   1.000
    O185    O    0.53282   0.16791   0.99885   1.000
    O186    O    0.52794   0.15382   0.88877   1.000
    O187    O    0.60986   0.13823   0.91211   1.000
    N188    N    0.84241   0.03142   0.87431   1.000
    O189    O    0.83288   0.99294   0.94753   1.000
    O190    O    0.89055   0.06035   0.86587   1.000
    O191    O    0.86494   0.02030   0.80098   1.000
    O192    O    0.78515   0.04934   0.88355   1.000
    N193    N    0.10572   0.97889   0.83122   1.000
    O194    O    0.05729   0.01880   0.83924   1.000
    O195    O    0.12582   0.98222   0.75310   1.000
    O196    O    0.08466   0.92461   0.84968   1.000
    O197    O    0.13866   0.00278   0.86459   1.000
    N198    N    0.84241   0.53142   0.87431   1.000
    O199    O    0.86494   0.52030   0.80098   1.000
    O200    O    0.78515   0.54934   0.88355   1.000
    O201    O    0.89055   0.56034   0.86587   1.000
    O202    O    0.83288   0.49294   0.94753   1.000
    N203    N    0.10572   0.47889   0.83120   1.000
    O204    O    0.08466   0.42461   0.84968   1.000
    O205    O    0.05729   0.51880   0.83923   1.000
    O206    O    0.12581   0.48222   0.75310   1.000
    O207    O    0.13866   0.50278   0.86456   1.000
    N208    N    0.46860   0.15760   0.62565   1.000
    O209    O    0.43967   0.10947   0.63409   1.000
    O210    O    0.47973   0.13507   0.69898   1.000
    O211    O    0.50707   0.16714   0.55244   1.000
    O212    O    0.45067   0.21485   0.61643   1.000
    N213    N    0.39429   0.02110   0.16861   1.000
    O214    O    0.36135   0.99721   0.13533   1.000
    O215    O    0.44272   0.98119   0.16068   1.000
    O216    O    0.37420   0.01777   0.24681   1.000
    O217    O    0.41535   0.07538   0.15001   1.000
    N218    N    0.43787   0.32199   0.07930   1.000
    O219    O    0.39015   0.36176   0.08791   1.000
    O220    O    0.47207   0.34618   0.11125   1.000
    O221    O    0.46719   0.33208   0.00116   1.000
    O222    O    0.44251   0.26148   0.09976   1.000
    N223    N    0.89429   0.52110   0.16861   1.000
    O224    O    0.87420   0.51777   0.24681   1.000
    O225    O    0.94272   0.48119   0.16068   1.000
    O226    O    0.86136   0.49721   0.13533   1.000
    O227    O    0.91536   0.57538   0.15001   1.000
    N228    N    0.93787   0.82198   0.07930   1.000
    O229    O    0.97207   0.84617   0.11125   1.000
    O230    O    0.89016   0.86176   0.08791   1.000
    O231    O    0.96720   0.83208   0.00116   1.000
    O232    O    0.94251   0.76147   0.09976   1.000
    N233    N    0.82203   0.43786   0.57925   1.000
    O234    O    0.84622   0.47207   0.61119   1.000
    O235    O    0.83214   0.46717   0.50111   1.000
    O236    O    0.76151   0.44251   0.59971   1.000
    O237    O    0.86179   0.39015   0.58789   1.000
    N238    N    0.43787   0.82198   0.07930   1.000
    O239    O    0.39016   0.86176   0.08791   1.000
    O240    O    0.44251   0.76147   0.09976   1.000
    O241    O    0.46719   0.83208   0.00116   1.000
    O242    O    0.47207   0.84617   0.11125   1.000
    N243    N    0.52110   0.89429   0.66866   1.000
    O244    O    0.57539   0.91535   0.65006   1.000
    O245    O    0.48120   0.94272   0.66069   1.000
    O246    O    0.51777   0.87421   0.74686   1.000
    O247    O    0.49722   0.86135   0.63538   1.000
    N248    N    0.47892   0.60570   0.33133   1.000
    O249    O    0.50280   0.63864   0.36461   1.000
    O250    O    0.51882   0.55726   0.33931   1.000
    O251    O    0.42463   0.58464   0.34993   1.000
    O252    O    0.48224   0.62578   0.25312   1.000
    N253    N    0.47891   0.10570   0.33133   1.000
    O254    O    0.50280   0.13864   0.36461   1.000
    O255    O    0.51882   0.05727   0.33931   1.000
    O256    O    0.42463   0.08464   0.34993   1.000
    O257    O    0.48224   0.12579   0.25312   1.000
    N258    N    0.97892   0.60570   0.33133   1.000
    O259    O    0.01882   0.55726   0.33931   1.000
    O260    O    0.98224   0.62578   0.25312   1.000
    O261    O    0.00280   0.63864   0.36461   1.000
    O262    O    0.92463   0.58464   0.34993   1.000
    N263    N    0.65761   0.46857   0.12568   1.000
    O264    O    0.66714   0.50705   0.05247   1.000
    O265    O    0.71486   0.45065   0.11645   1.000
    O266    O    0.60946   0.43965   0.13413   1.000
    O267    O    0.63508   0.47969   0.19900   1.000
    N268    N    0.17798   0.06213   0.42075   1.000
    O269    O    0.13822   0.10985   0.41210   1.000
    O270    O    0.16787   0.03282   0.49889   1.000
    O271    O    0.15380   0.02792   0.38881   1.000
    O272    O    0.23850   0.05748   0.40029   1.000
    N273    N    0.93787   0.32199   0.07928   1.000
    O274    O    0.89016   0.36176   0.08790   1.000
    O275    O    0.94251   0.26148   0.09975   1.000
    O276    O    0.96719   0.33208   0.00115   1.000
    O277    O    0.97207   0.34618   0.11122   1.000
    N278    N    0.46860   0.65760   0.62565   1.000
    O279    O    0.47973   0.63506   0.69898   1.000
    O280    O    0.50707   0.66714   0.55244   1.000
    O281    O    0.43967   0.60946   0.63409   1.000
    O282    O    0.45068   0.71485   0.61643   1.000
    N283    N    0.82204   0.93786   0.57925   1.000
    O284    O    0.76152   0.94251   0.59971   1.000
    O285    O    0.86180   0.89014   0.58790   1.000
    O286    O    0.83215   0.96717   0.50111   1.000
    O287    O    0.84622   0.97207   0.61120   1.000
loop_
    _geom_bond_atom_site_label_1
    _geom_bond_atom_site_label_2
    _geom_bond_distance
    _geom_bond_site_symmetry_2
    _ccdc_geom_bond_type
    N48    O49       1.16632      .   S
    Zr23   O49       2.01279      .   S
    N48    O50       1.12484      .   S
    Zr7    O50       1.93955      .   S
    N48    O51       1.15839  1_565   S
    Zr30   O51       1.99937  1_556   S
    N48    O52       1.13480      .   S
    Zr11   O52       1.95580      .   S
    N53    O54       1.16154  1_655   S
    Zr21   O54       2.00335  1_565   S
    N53    O55       1.14813      .   S
    Zr2    O55       1.97749      .   S
    N53    O56       1.14378  1_655   S
    Zr16   O56       1.97676      .   S
    N53    O57       1.13785      .   S
    Zr14   O57       1.96569      .   S
    N58    O59       1.16633      .   S
    Zr11   O59       2.01228      .   S
    N58    O60       1.12487      .   S
    Zr19   O60       1.93961      .   S
    N58    O61       1.15845      .   S
    Zr41   O61       1.99941      .   S
    N58    O62       1.13480      .   S
    Zr23   O62       1.95577      .   S
    N63    O64       1.16634      .   S
    Zr10   O64       2.01229      .   S
    N63    O65       1.12487      .   S
    Zr18   O65       1.93961      .   S
    N63    O66       1.15845      .   S
    Zr40   O66       1.99941      .   S
    N63    O67       1.13480      .   S
    Zr22   O67       1.95577      .   S
    N68    O69       1.12486      .   S
    Zr17   O69       1.93961      .   S
    N68    O70       1.15843  1_455   S
    Zr43   O70       1.99940      .   S
    N68    O71       1.13479      .   S
    Zr21   O71       1.95577      .   S
    N68    O72       1.16634      .   S
    Zr9    O72       2.01229      .   S
    N73    O74       1.13816      .   S
    Zr27   O74       1.96491      .   S
    N73    O75       1.14665      .   S
    Zr39   O75       1.97681      .   S
    N73    O76       1.16172  1_565   S
    Zr32   O76       2.00336      .   S
    N73    O77       1.14451  1_565   S
    Zr30   O77       1.97797      .   S
    N78    O79       1.15159      .   S
    Zr45   O79       1.98265      .   S
    N78    O80       1.15981      .   S
    Zr13   O80       1.99849      .   S
    N78    O81       1.15058      .   S
    Zr40   O81       1.98662      .   S
    N78    O82       1.15076      .   S
    Zr36   O82       1.98802      .   S
    N83    O84       1.15077      .   S
    Zr37   O84       1.98804      .   S
    N83    O85       1.15158      .   S
    Zr44   O85       1.98276  1_545   S
    N83    O86       1.15978      .   S
    Zr12   O86       1.99852  1_545   S
    N83    O87       1.15058      .   S
    Zr41   O87       1.98661      .   S
    N88    O89       1.13477      .   S
    Zr46   O89       1.95578      .   S
    N88    O90       1.16647      .   S
    Zr34   O90       2.01242      .   S
    N88    O91       1.15841  1_655   S
    Zr16   O91       1.99957      .   S
    N88    O92       1.12485      .   S
    Zr42   O92       1.93961      .   S
    N93    O94       1.13795      .   S
    Zr2    O94       1.96583      .   S
    N93    O95       1.16160  1_545   S
    Zr9    O95       2.00335  1_455   S
    N93    O96       1.14806      .   S
    Zr14   O96       1.97815      .   S
    N93    O97       1.14366  1_545   S
    Zr7    O97       1.97665      .   S
    N98    O99       1.15839  1_565   S
    Zr28   O99       1.99937  1_556   S
    N98    O100      1.12484      .   S
    Zr5    O100      1.93955      .   S
    N98    O101      1.13481      .   S
    Zr9    O101      1.95582      .   S
    N98    O102      1.16632      .   S
    Zr21   O102      2.01279      .   S
    N103   O104      1.13482      .   S
    Zr33   O104      1.95582      .   S
    N103   O105      1.12482      .   S
    Zr29   O105      1.93954      .   S
    N103   O106      1.15845      .   S
    Zr4    O106      1.99945  1_554   S
    N103   O107      1.16650      .   S
    Zr45   O107      2.01254      .   S
    N108   O109      1.15844      .   S
    Zr29   O109      1.99944  1_556   S
    N108   O110      1.12483      .   S
    Zr4    O110      1.93955      .   S
    N108   O111      1.13483      .   S
    Zr8    O111      1.95582      .   S
    N108   O112      1.16648      .   S
    Zr20   O112      2.01244      .   S
    N113   O114      1.14796      .   S
    Zr24   O114      1.97798      .   S
    N113   O115      1.13787      .   S
    Zr36   O115      1.96570      .   S
    N113   O116      1.16147  1_455   S
    Zr47   O116      2.00320      .   S
    N113   O117      1.14378  1_455   S
    Zr42   O117      1.97687      .   S
    N118   O119      1.15993      .   S
    Zr3    O119      1.99867  1_654   S
    N118   O120      1.15070      .   S
    Zr29   O120      1.98681      .   S
    N118   O121      1.15057      .   S
    Zr25   O121      1.98772      .   S
    N118   O122      1.15161      .   S
    Zr35   O122      1.98261  1_655   S
    N123   O124      1.13483      .   S
    Zr32   O124      1.95582      .   S
    N123   O125      1.15848  1_545   S
    Zr5    O125      1.99948  1_554   S
    N123   O126      1.12484      .   S
    Zr28   O126      1.93956      .   S
    N123   O127      1.16649      .   S
    Zr44   O127      2.01253      .   S
    N128   O129      1.16153  1_455   S
    Zr46   O129      2.00335  1_545   S
    N128   O130      1.13787      .   S
    Zr37   O130      1.96570      .   S
    N128   O131      1.14378  1_455   S
    Zr43   O131      1.97686      .   S
    N128   O132      1.14796      .   S
    Zr25   O132      1.97798      .   S
    N133   O134      1.15841  1_655   S
    Zr17   O134      1.99958      .   S
    N133   O135      1.16647      .   S
    Zr35   O135      2.01242      .   S
    N133   O136      1.13476      .   S
    Zr47   O136      1.95577      .   S
    N133   O137      1.12485      .   S
    Zr43   O137      1.93961      .   S
    N138   O139      1.15059      .   S
    Zr17   O139      1.98661      .   S
    N138   O140      1.15160      .   S
    Zr20   O140      1.98267      .   S
    N138   O141      1.15983      .   S
    Zr36   O141      1.99845      .   S
    N138   O142      1.15077      .   S
    Zr13   O142      1.98804      .   S
    N143   O144      1.15162      .   S
    Zr23   O144      1.98270  1_565   S
    N143   O145      1.15059      .   S
    Zr18   O145      1.98661      .   S
    N143   O146      1.15984      .   S
    Zr39   O146      1.99851  1_565   S
    N143   O147      1.15076      .   S
    Zr14   O147      1.98803      .   S
    N148   O149      1.15983      .   S
    Zr38   O149      1.99845      .   S
    N148   O150      1.15160      .   S
    Zr22   O150      1.98266      .   S
    N148   O151      1.15059      .   S
    Zr19   O151      1.98661      .   S
    N148   O152      1.15077      .   S
    Zr15   O152      1.98804      .   S
    N153   O154      1.13814      .   S
    Zr26   O154      1.96492      .   S
    N153   O155      1.14465      .   S
    Zr31   O155      1.97762      .   S
    N153   O156      1.16166      .   S
    Zr33   O156      2.00331      .   S
    N153   O157      1.14677      .   S
    Zr38   O157      1.97689      .   S
    N158   O159      1.13479      .   S
    Zr20   O159      1.95576      .   S
    N158   O160      1.12486      .   S
    Zr16   O160      1.93961      .   S
    N158   O161      1.15843  1_455   S
    Zr42   O161      1.99940      .   S
    N158   O162      1.16634      .   S
    Zr8    O162      2.01229      .   S
    N163   O164      1.13789      .   S
    Zr38   O164      1.96573      .   S
    N163   O165      1.16149      .   S
    Zr45   O165      2.00323      .   S
    N163   O166      1.14796      .   S
    Zr26   O166      1.97800      .   S
    N163   O167      1.14378      .   S
    Zr40   O167      1.97691      .   S
    N168   O169      1.15057      .   S
    Zr24   O169      1.98771      .   S
    N168   O170      1.15071      .   S
    Zr28   O170      1.98681      .   S
    N168   O171      1.15161      .   S
    Zr34   O171      1.98261  1_655   S
    N168   O172      1.15993      .   S
    Zr2    O172      1.99867  1_654   S
    N173   O174      1.15163      .   S
    Zr33   O174      1.98267      .   S
    N173   O175      1.15057      .   S
    Zr27   O175      1.98771      .   S
    N173   O176      1.15994      .   S
    Zr1    O176      1.99871  1_554   S
    N173   O177      1.15070      .   S
    Zr31   O177      1.98681      .   S
    N178   O179      1.14806      .   S
    Zr13   O179      1.97812      .   S
    N178   O180      1.16156      .   S
    Zr10   O180      2.00335      .   S
    N178   O181      1.14365      .   S
    Zr4    O181      1.97660      .   S
    N178   O182      1.13793      .   S
    Zr1    O182      1.96581      .   S
    N183   O184      1.15057      .   S
    Zr26   O184      1.98772      .   S
    N183   O185      1.15994      .   S
    Zr0    O185      1.99871  1_554   S
    N183   O186      1.15163      .   S
    Zr32   O186      1.98267      .   S
    N183   O187      1.15070      .   S
    Zr30   O187      1.98681      .   S
    N188   O189      1.15848  1_545   S
    Zr7    O189      1.99947  1_554   S
    N188   O190      1.13483      .   S
    Zr34   O190      1.95582      .   S
    N188   O191      1.16649      .   S
    Zr46   O191      2.01253      .   S
    N188   O192      1.12484      .   S
    Zr30   O192      1.93956      .   S
    N193   O194      1.16169  1_565   S
    Zr34   O194      2.00331  1_655   S
    N193   O195      1.14676      .   S
    Zr37   O195      1.97692      .   S
    N193   O196      1.13817      .   S
    Zr25   O196      1.96493      .   S
    N193   O197      1.14465  1_565   S
    Zr28   O197      1.97766      .   S
    N198   O199      1.16650      .   S
    Zr47   O199      2.01254      .   S
    N198   O200      1.12482      .   S
    Zr31   O200      1.93954      .   S
    N198   O201      1.13482      .   S
    Zr35   O201      1.95582      .   S
    N198   O202      1.15845      .   S
    Zr6    O202      1.99945  1_554   S
    N203   O204      1.13813      .   S
    Zr24   O204      1.96489      .   S
    N203   O205      1.16164      .   S
    Zr35   O205      2.00324  1_655   S
    N203   O206      1.14665      .   S
    Zr36   O206      1.97677      .   S
    N203   O207      1.14452      .   S
    Zr29   O207      1.97792      .   S
    N208   O209      1.13477      .   S
    Zr44   O209      1.95578      .   S
    N208   O210      1.16646      .   S
    Zr32   O210      2.01242      .   S
    N208   O211      1.15844      .   S
    Zr18   O211      1.99959      .   S
    N208   O212      1.12485      .   S
    Zr40   O212      1.93961      .   S
    N213   O214      1.14366  1_545   S
    Zr5    O214      1.97664      .   S
    N213   O215      1.16162  1_545   S
    Zr11   O215      2.00341      .   S
    N213   O216      1.14806      .   S
    Zr12   O216      1.97815      .   S
    N213   O217      1.13795      .   S
    Zr0    O217      1.96583      .   S
    N218   O219      1.15070      .   S
    Zr4    O219      1.98681      .   S
    N218   O220      1.15163      .   S
    Zr10   O220      1.98267      .   S
    N218   O221      1.15994      .   S
    Zr26   O221      1.99871  1_556   S
    N218   O222      1.15057      .   S
    Zr0    O222      1.98771      .   S
    N223   O224      1.14806      .   S
    Zr15   O224      1.97812      .   S
    N223   O225      1.16154      .   S
    Zr8    O225      2.00330  1_455   S
    N223   O226      1.14366      .   S
    Zr6    O226      1.97659      .   S
    N223   O227      1.13793      .   S
    Zr3    O227      1.96581      .   S
    N228   O229      1.15161      .   S
    Zr9    O229      1.98261  1_455   S
    N228   O230      1.15070      .   S
    Zr7    O230      1.98682      .   S
    N228   O231      1.15993      .   S
    Zr25   O231      1.99867  1_456   S
    N228   O232      1.15057      .   S
    Zr3    O232      1.98771      .   S
    N233   O234      1.15157      .   S
    Zr47   O234      1.98273      .   S
    N233   O235      1.15977      .   S
    Zr15   O235      1.99846      .   S
    N233   O236      1.15076      .   S
    Zr38   O236      1.98802      .   S
    N233   O237      1.15058      .   S
    Zr42   O237      1.98661      .   S
    N238   O239      1.15070      .   S
    Zr5    O239      1.98682      .   S
    N238   O240      1.15057      .   S
    Zr1    O240      1.98770      .   S
    N238   O241      1.15994      .   S
    Zr27   O241      1.99871  1_556   S
    N238   O242      1.15163      .   S
    Zr11   O242      1.98268      .   S
    N243   O244      1.13789      .   S
    Zr39   O244      1.96572      .   S
    N243   O245      1.16155      .   S
    Zr44   O245      2.00337  1_545   S
    N243   O246      1.14796      .   S
    Zr27   O246      1.97800      .   S
    N243   O247      1.14378      .   S
    Zr41   O247      1.97692      .   S
    N248   O249      1.14379      .   S
    Zr19   O249      1.97682      .   S
    N248   O250      1.16151      .   S
    Zr22   O250      2.00324      .   S
    N248   O251      1.13788      .   S
    Zr13   O251      1.96571      .   S
    N248   O252      1.14813      .   S
    Zr1    O252      1.97751      .   S
    N253   O254      1.14380      .   S
    Zr18   O254      1.97682      .   S
    N253   O255      1.16156      .   S
    Zr23   O255      2.00338  1_565   S
    N253   O256      1.13788      .   S
    Zr12   O256      1.96571      .   S
    N253   O257      1.14813      .   S
    Zr0    O257      1.97751      .   S
    N258   O259      1.16149  1_655   S
    Zr20   O259      2.00320      .   S
    N258   O260      1.14813      .   S
    Zr3    O260      1.97749      .   S
    N258   O261      1.14379  1_655   S
    Zr17   O261      1.97676      .   S
    N258   O262      1.13786      .   S
    Zr15   O262      1.96569      .   S
    N263   O264      1.15835      .   S
    Zr31   O264      1.99935  1_556   S
    N263   O265      1.12483      .   S
    Zr6    O265      1.93955      .   S
    N263   O266      1.13480      .   S
    Zr10   O266      1.95581      .   S
    N263   O267      1.16633      .   S
    Zr22   O267      2.01279      .   S
    N268   O269      1.15059      .   S
    Zr16   O269      1.98661      .   S
    N268   O270      1.15984      .   S
    Zr37   O270      1.99851  1_565   S
    N268   O271      1.15162      .   S
    Zr21   O271      1.98270  1_565   S
    N268   O272      1.15076      .   S
    Zr12   O272      1.98803      .   S
    N273   O274      1.15071      .   S
    Zr6    O274      1.98680      .   S
    N273   O275      1.15057      .   S
    Zr2    O275      1.98771      .   S
    N273   O276      1.15982      .   S
    Zr24   O276      1.99857  1_456   S
    N273   O277      1.15148      .   S
    Zr8    O277      1.98292  1_455   S
    N278   O279      1.16646      .   S
    Zr33   O279      2.01241      .   S
    N278   O280      1.15843      .   S
    Zr19   O280      1.99959      .   S
    N278   O281      1.13478      .   S
    Zr45   O281      1.95577      .   S
    N278   O282      1.12485      .   S
    Zr41   O282      1.93961      .   S
    N283   O284      1.15077      .   S
    Zr39   O284      1.98804      .   S
    N283   O285      1.15058      .   S
    Zr43   O285      1.98661      .   S
    N283   O286      1.15982      .   S
    Zr14   O286      1.99856  1_545   S
    N283   O287      1.15161      .   S
    Zr46   O287      1.98268  1_545   S
