# CIF file generated by openbabel 2.4.90, see http://openbabel.sf.net
data_I
_chemical_name_common ''
_cell_length_a 19.797
_cell_length_b 19.8
_cell_length_c 15.418
_cell_angle_alpha 74.151
_cell_angle_beta 74.164
_cell_angle_gamma 82.483
_space_group_name_H-M_alt 'P 1'
_space_group_name_Hall 'P 1'
loop_
    _symmetry_equiv_pos_as_xyz
    x,y,z
loop_
    _atom_site_label
    _atom_site_type_symbol
    _atom_site_fract_x
    _atom_site_fract_y
    _atom_site_fract_z
    _atom_site_occupancy
    N0      N    0.65761   0.96857   0.12568   1.000
    N1      N    0.97891   0.10570   0.33133   1.000
    N2      N    0.53142   0.84239   0.37434   1.000
    N3      N    0.53141   0.34239   0.37434   1.000
    N4      N    0.03141   0.84239   0.37434   1.000
    N5      N    0.60573   0.97889   0.83120   1.000
    N6      N    0.32203   0.43786   0.57925   1.000
    N7      N    0.32203   0.93786   0.57925   1.000
    N8      N    0.96860   0.15760   0.62565   1.000
    N9      N    0.89429   0.02110   0.16861   1.000
    N10     N    0.15761   0.96857   0.12568   1.000
    N11     N    0.34241   0.53142   0.87431   1.000
    N12     N    0.15761   0.46857   0.12570   1.000
    N13     N    0.02110   0.39430   0.66866   1.000
    N14     N    0.06214   0.67801   0.92071   1.000
    N15     N    0.34240   0.03142   0.87431   1.000
    N16     N    0.02110   0.89429   0.66866   1.000
    N17     N    0.96860   0.65760   0.62565   1.000
    N18     N    0.17798   0.56213   0.42075   1.000
    N19     N    0.67798   0.06213   0.42075   1.000
    N20     N    0.67798   0.56213   0.42075   1.000
    N21     N    0.60573   0.47889   0.83122   1.000
    N22     N    0.03141   0.34239   0.37434   1.000
    N23     N    0.52110   0.39430   0.66866   1.000
    N24     N    0.06214   0.17801   0.92071   1.000
    N25     N    0.56215   0.67801   0.92071   1.000
    N26     N    0.39429   0.52110   0.16861   1.000
    N27     N    0.56214   0.17801   0.92071   1.000
    N28     N    0.84241   0.03142   0.87431   1.000
    N29     N    0.10572   0.97889   0.83122   1.000
    N30     N    0.84241   0.53142   0.87431   1.000
    N31     N    0.10572   0.47889   0.83120   1.000
    N32     N    0.46860   0.15760   0.62565   1.000
    N33     N    0.39429   0.02110   0.16861   1.000
    N34     N    0.43787   0.32199   0.07930   1.000
    N35     N    0.89429   0.52110   0.16861   1.000
    N36     N    0.93787   0.82198   0.07930   1.000
    N37     N    0.82203   0.43786   0.57925   1.000
    N38     N    0.43787   0.82198   0.07930   1.000
    N39     N    0.52110   0.89429   0.66866   1.000
    N40     N    0.47892   0.60570   0.33133   1.000
    N41     N    0.47891   0.10570   0.33133   1.000
    N42     N    0.97892   0.60570   0.33133   1.000
    N43     N    0.65761   0.46857   0.12568   1.000
    N44     N    0.17798   0.06213   0.42075   1.000
    N45     N    0.93787   0.32199   0.07928   1.000
    N46     N    0.46860   0.65760   0.62565   1.000
    N47     N    0.82204   0.93786   0.57925   1.000
    Zr48    Zr   0.51678   0.90194   0.16700   1.000
    O49     O    0.49443   0.87406   0.13912   1.000
    O50     O    0.47975   0.94156   0.16384   1.000
    O51     O    0.56312   0.92079   0.15056   1.000
    O52     O    0.51853   0.88343   0.23401   1.000
    Zr53    Zr   0.51678   0.40195   0.16700   1.000
    O54     O    0.49442   0.37406   0.13912   1.000
    O55     O    0.56312   0.42080   0.15056   1.000
    O56     O    0.51853   0.38344   0.23401   1.000
    O57     O    0.47975   0.44157   0.16384   1.000
    Zr58    Zr   0.18323   0.05959   0.91863   1.000
    O59     O    0.16094   0.03118   0.89161   1.000
    O60     O    0.23419   0.05447   0.90109   1.000
    O61     O    0.14654   0.09891   0.91537   1.000
    O62     O    0.17518   0.03332   0.98555   1.000
    Zr63    Zr   0.46826   0.15878   0.12571   1.000
    O64     O    0.47525   0.14228   0.18941   1.000
    O65     O    0.45539   0.21013   0.11274   1.000
    O66     O    0.44181   0.11708   0.13786   1.000
    O67     O    0.50054   0.16334   0.06228   1.000
    Zr68    Zr   0.09805   0.98320   0.33304   1.000
    O69     O    0.11656   0.98144   0.26602   1.000
    O70     O    0.12592   0.00556   0.36092   1.000
    O71     O    0.05843   0.02023   0.33617   1.000
    O72     O    0.07920   0.93686   0.34947   1.000
    Zr73    Zr   0.05960   0.68323   0.41858   1.000
    O74     O    0.09891   0.64653   0.41534   1.000
    O75     O    0.03333   0.67518   0.48551   1.000
    O76     O    0.03120   0.66093   0.39160   1.000
    O77     O    0.05447   0.73418   0.40106   1.000
    Zr78    Zr   0.15878   0.46826   0.62574   1.000
    O79     O    0.11708   0.44181   0.63790   1.000
    O80     O    0.14230   0.47524   0.68942   1.000
    O81     O    0.16332   0.50054   0.56232   1.000
    O82     O    0.21014   0.45539   0.61273   1.000
    Zr83    Zr   0.96827   0.65877   0.12571   1.000
    O84     O    0.00054   0.66334   0.06228   1.000
    O85     O    0.95539   0.71012   0.11274   1.000
    O86     O    0.94181   0.61707   0.13786   1.000
    O87     O    0.97526   0.64228   0.18941   1.000
    Zr88    Zr   0.48324   0.59805   0.83301   1.000
    O89     O    0.43689   0.57919   0.84944   1.000
    O90     O    0.50559   0.62593   0.86089   1.000
    O91     O    0.48148   0.61655   0.76600   1.000
    O92     O    0.52027   0.55842   0.83612   1.000
    Zr93    Zr   0.98324   0.09805   0.83301   1.000
    O94     O    0.02026   0.05843   0.83612   1.000
    O95     O    0.98148   0.11656   0.76600   1.000
    O96     O    0.93689   0.07920   0.84944   1.000
    O97     O    0.00559   0.12593   0.86089   1.000
    Zr98    Zr   0.55960   0.18323   0.41858   1.000
    O99     O    0.53333   0.17519   0.48551   1.000
    O100    O    0.59891   0.14654   0.41534   1.000
    O101    O    0.53120   0.16094   0.39160   1.000
    O102    O    0.55447   0.23419   0.40106   1.000
    Zr103   Zr   0.34123   0.03173   0.37426   1.000
    O104    O    0.28986   0.04461   0.38728   1.000
    O105    O    0.35771   0.02475   0.31054   1.000
    O106    O    0.38293   0.05819   0.36210   1.000
    O107    O    0.33669   0.99945   0.43769   1.000
    Zr108   Zr   0.90197   0.01679   0.66696   1.000
    O109    O    0.88345   0.01855   0.73397   1.000
    O110    O    0.87409   0.99443   0.63908   1.000
    O111    O    0.94158   0.97976   0.66382   1.000
    O112    O    0.92082   0.06313   0.65053   1.000
    Zr113   Zr   0.90197   0.51679   0.66696   1.000
    O114    O    0.94158   0.47976   0.66382   1.000
    O115    O    0.92082   0.56313   0.65053   1.000
    O116    O    0.88345   0.51854   0.73397   1.000
    O117    O    0.87409   0.49443   0.63907   1.000
    Zr118   Zr   0.98324   0.59805   0.83301   1.000
    O119    O    0.02027   0.55842   0.83612   1.000
    O120    O    0.98149   0.61655   0.76600   1.000
    O121    O    0.93690   0.57919   0.84944   1.000
    O122    O    0.00559   0.62593   0.86089   1.000
    Zr123   Zr   0.34123   0.53173   0.37426   1.000
    O124    O    0.28987   0.54460   0.38728   1.000
    O125    O    0.38293   0.55818   0.36210   1.000
    O126    O    0.35771   0.52475   0.31054   1.000
    O127    O    0.33669   0.49945   0.43769   1.000
    Zr128   Zr   0.05959   0.18323   0.41858   1.000
    O129    O    0.03333   0.17519   0.48551   1.000
    O130    O    0.09891   0.14654   0.41534   1.000
    O131    O    0.05446   0.23419   0.40106   1.000
    O132    O    0.03120   0.16094   0.39160   1.000
    Zr133   Zr   0.01678   0.90194   0.16700   1.000
    O134    O    0.06312   0.92079   0.15056   1.000
    O135    O    0.97975   0.94156   0.16384   1.000
    O136    O    0.99443   0.87406   0.13912   1.000
    O137    O    0.01853   0.88343   0.23401   1.000
    Zr138   Zr   0.44042   0.81676   0.58140   1.000
    O139    O    0.46882   0.83905   0.60839   1.000
    O140    O    0.44555   0.76580   0.59891   1.000
    O141    O    0.46668   0.82480   0.51448   1.000
    O142    O    0.40111   0.85345   0.58465   1.000
    Zr143   Zr   0.81678   0.94040   0.08138   1.000
    O144    O    0.85347   0.90108   0.08464   1.000
    O145    O    0.83907   0.96881   0.10836   1.000
    O146    O    0.76582   0.94552   0.09892   1.000
    O147    O    0.82483   0.96667   0.01445   1.000
    Zr148   Zr   0.68323   0.05959   0.91863   1.000
    O149    O    0.73419   0.05447   0.90109   1.000
    O150    O    0.67519   0.03332   0.98555   1.000
    O151    O    0.66095   0.03118   0.89159   1.000
    O152    O    0.64655   0.09891   0.91537   1.000
    Zr153   Zr   0.81678   0.44041   0.08138   1.000
    O154    O    0.82483   0.46667   0.01445   1.000
    O155    O    0.83907   0.46881   0.10836   1.000
    O156    O    0.76582   0.44553   0.09892   1.000
    O157    O    0.85347   0.40108   0.08464   1.000
    Zr158   Zr   0.15878   0.96826   0.62574   1.000
    O159    O    0.14230   0.97524   0.68942   1.000
    O160    O    0.11708   0.94180   0.63790   1.000
    O161    O    0.16333   0.00054   0.56232   1.000
    O162    O    0.21015   0.95538   0.61272   1.000
    Zr163   Zr   0.84123   0.03173   0.37426   1.000
    O164    O    0.78987   0.04461   0.38728   1.000
    O165    O    0.85772   0.02475   0.31054   1.000
    O166    O    0.83669   0.99945   0.43769   1.000
    O167    O    0.88293   0.05819   0.36210   1.000
    Zr168   Zr   0.01678   0.40195   0.16700   1.000
    O169    O    0.06312   0.42080   0.15057   1.000
    O170    O    0.99442   0.37406   0.13911   1.000
    O171    O    0.97975   0.44157   0.16384   1.000
    O172    O    0.01853   0.38344   0.23401   1.000
    Zr173   Zr   0.84124   0.53173   0.37426   1.000
    O174    O    0.85772   0.52475   0.31054   1.000
    O175    O    0.83669   0.49945   0.43769   1.000
    O176    O    0.88293   0.55818   0.36210   1.000
    O177    O    0.78987   0.54460   0.38728   1.000
    Zr178   Zr   0.65878   0.46826   0.62574   1.000
    O179    O    0.66333   0.50054   0.56232   1.000
    O180    O    0.64230   0.47524   0.68942   1.000
    O181    O    0.61708   0.44181   0.63790   1.000
    O182    O    0.71015   0.45539   0.61272   1.000
    Zr183   Zr   0.94042   0.81676   0.58140   1.000
    O184    O    0.96882   0.83905   0.60839   1.000
    O185    O    0.94555   0.76580   0.59891   1.000
    O186    O    0.90111   0.85345   0.58465   1.000
    O187    O    0.96668   0.82480   0.51448   1.000
    Zr188   Zr   0.65878   0.96826   0.62574   1.000
    O189    O    0.66333   0.00054   0.56232   1.000
    O190    O    0.61709   0.94180   0.63790   1.000
    O191    O    0.71015   0.95538   0.61273   1.000
    O192    O    0.64230   0.97524   0.68942   1.000
    Zr193   Zr   0.59805   0.48320   0.33304   1.000
    O194    O    0.55843   0.52023   0.33617   1.000
    O195    O    0.61656   0.48145   0.26602   1.000
    O196    O    0.62593   0.50556   0.36092   1.000
    O197    O    0.57920   0.43686   0.34947   1.000
    Zr198   Zr   0.96827   0.15878   0.12571   1.000
    O199    O    0.00054   0.16334   0.06228   1.000
    O200    O    0.95539   0.21013   0.11273   1.000
    O201    O    0.97525   0.14228   0.18941   1.000
    O202    O    0.94181   0.11708   0.13786   1.000
    Zr203   Zr   0.03175   0.84122   0.87430   1.000
    O204    O    0.02476   0.85771   0.81058   1.000
    O205    O    0.05820   0.88291   0.86199   1.000
    O206    O    0.04463   0.78986   0.88728   1.000
    O207    O    0.99947   0.83665   0.93773   1.000
    Zr208   Zr   0.09805   0.48320   0.33304   1.000
    O209    O    0.11656   0.48145   0.26603   1.000
    O210    O    0.12592   0.50556   0.36092   1.000
    O211    O    0.07919   0.43686   0.34947   1.000
    O212    O    0.05843   0.52023   0.33617   1.000
    Zr213   Zr   0.48323   0.09805   0.83301   1.000
    O214    O    0.43689   0.07920   0.84944   1.000
    O215    O    0.48148   0.11656   0.76600   1.000
    O216    O    0.52026   0.05843   0.83612   1.000
    O217    O    0.50559   0.12593   0.86089   1.000
    Zr218   Zr   0.31678   0.44041   0.08138   1.000
    O219    O    0.35347   0.40108   0.08464   1.000
    O220    O    0.32483   0.46667   0.01445   1.000
    O221    O    0.26582   0.44553   0.09892   1.000
    O222    O    0.33907   0.46881   0.10836   1.000
    Zr223   Zr   0.46827   0.65877   0.12571   1.000
    O224    O    0.50054   0.66334   0.06228   1.000
    O225    O    0.47525   0.64228   0.18941   1.000
    O226    O    0.45539   0.71012   0.11274   1.000
    O227    O    0.44181   0.61707   0.13786   1.000
    Zr228   Zr   0.94042   0.31677   0.58140   1.000
    O229    O    0.94555   0.26581   0.59891   1.000
    O230    O    0.96882   0.33906   0.60839   1.000
    O231    O    0.96668   0.32481   0.51448   1.000
    O232    O    0.90111   0.35346   0.58465   1.000
    Zr233   Zr   0.59805   0.98320   0.33304   1.000
    O234    O    0.62593   0.00556   0.36092   1.000
    O235    O    0.55843   0.02023   0.33617   1.000
    O236    O    0.61656   0.98144   0.26602   1.000
    O237    O    0.57920   0.93686   0.34947   1.000
    Zr238   Zr   0.31678   0.94040   0.08138   1.000
    O239    O    0.26582   0.94552   0.09892   1.000
    O240    O    0.32483   0.96667   0.01445   1.000
    O241    O    0.35347   0.90108   0.08464   1.000
    O242    O    0.33907   0.96881   0.10836   1.000
    Zr243   Zr   0.03175   0.34122   0.87430   1.000
    O244    O    0.05820   0.38292   0.86199   1.000
    O245    O    0.02476   0.35772   0.81058   1.000
    O246    O    0.04462   0.28987   0.88728   1.000
    O247    O    0.99947   0.33665   0.93773   1.000
    Zr248   Zr   0.40197   0.51679   0.66696   1.000
    O249    O    0.38345   0.51854   0.73397   1.000
    O250    O    0.44158   0.47976   0.66382   1.000
    O251    O    0.37409   0.49443   0.63908   1.000
    O252    O    0.42082   0.56313   0.65053   1.000
    Zr253   Zr   0.44042   0.31677   0.58140   1.000
    O254    O    0.44554   0.26581   0.59891   1.000
    O255    O    0.46881   0.33906   0.60839   1.000
    O256    O    0.46668   0.32481   0.51448   1.000
    O257    O    0.40110   0.35346   0.58465   1.000
    Zr258   Zr   0.68324   0.55958   0.91863   1.000
    O259    O    0.66095   0.53118   0.89161   1.000
    O260    O    0.67519   0.53332   0.98555   1.000
    O261    O    0.73420   0.55446   0.90109   1.000
    O262    O    0.64655   0.59891   0.91537   1.000
    Zr263   Zr   0.55960   0.68323   0.41858   1.000
    O264    O    0.59891   0.64653   0.41534   1.000
    O265    O    0.53334   0.67518   0.48551   1.000
    O266    O    0.55447   0.73418   0.40106   1.000
    O267    O    0.53120   0.66093   0.39160   1.000
    Zr268   Zr   0.53175   0.84122   0.87430   1.000
    O269    O    0.52476   0.85771   0.81058   1.000
    O270    O    0.49947   0.83665   0.93773   1.000
    O271    O    0.54463   0.78986   0.88728   1.000
    O272    O    0.55821   0.88291   0.86199   1.000
    Zr273   Zr   0.40196   0.01679   0.66696   1.000
    O274    O    0.38345   0.01855   0.73397   1.000
    O275    O    0.42082   0.06313   0.65053   1.000
    O276    O    0.44158   0.97976   0.66382   1.000
    O277    O    0.37409   0.99443   0.63907   1.000
    Zr278   Zr   0.53175   0.34122   0.87430   1.000
    O279    O    0.55821   0.38292   0.86199   1.000
    O280    O    0.49947   0.33665   0.93773   1.000
    O281    O    0.52476   0.35772   0.81058   1.000
    O282    O    0.54463   0.28987   0.88728   1.000
    Zr283   Zr   0.18323   0.55958   0.91863   1.000
    O284    O    0.17519   0.53332   0.98556   1.000
    O285    O    0.14655   0.59891   0.91537   1.000
    O286    O    0.23419   0.55446   0.90109   1.000
    O287    O    0.16095   0.53118   0.89159   1.000
loop_
    _geom_bond_atom_site_label_1
    _geom_bond_atom_site_label_2
    _geom_bond_distance
    _geom_bond_site_symmetry_2
    _ccdc_geom_bond_type
    Zr48   O49       0.99134      .   S
    N38    O49       2.13371      .   S
    Zr48   O50       1.00171      .   S
    N33    O50       2.15550  1_545   S
    Zr48   O51       0.97790      .   S
    N0     O51       2.10100      .   S
    Zr48   O52       1.00614      .   S
    N2     O52       2.16640      .   S
    Zr53   O54       0.99133      .   S
    N34    O54       2.13370      .   S
    Zr53   O55       0.97790      .   S
    N43    O55       2.10100      .   S
    Zr53   O56       1.00614      .   S
    N3     O56       2.16640      .   S
    Zr53   O57       1.00168      .   S
    N26    O57       2.15542      .   S
    Zr58   O59       0.98883      .   S
    N29    O59       2.12425  1_565   S
    Zr58   O60       0.96978      .   S
    N15    O60       2.08149      .   S
    Zr58   O61       0.99340      .   S
    N24    O61       2.13592      .   S
    Zr58   O62       0.99969      .   S
    N10    O62       2.15087  1_564   S
    Zr63   O64       0.98876      .   S
    N41    O64       2.12713      .   S
    Zr63   O65       0.99385      .   S
    N34    O65       2.13643      .   S
    Zr63   O66       0.98292      .   S
    N33    O66       2.11032      .   S
    Zr63   O67       0.99935      .   S
    N27    O67       2.15162  1_556   S
    Zr68   O69       1.00639      .   S
    N10    O69       2.16665      .   S
    Zr68   O70       0.99135  1_565   S
    N44    O70       2.13370      .   S
    Zr68   O71       1.00168  1_565   S
    N1     O71       2.15538  1_655   S
    Zr68   O72       0.97788      .   S
    N4     O72       2.10096      .   S
    Zr73   O74       0.99330      .   S
    N18    O74       2.13568      .   S
    Zr73   O75       0.99979      .   S
    N17    O75       2.15101  1_655   S
    Zr73   O76       0.98838      .   S
    N42    O76       2.12295  1_655   S
    Zr73   O77       0.96980      .   S
    N4     O77       2.08154      .   S
    Zr78   O79       0.98285      .   S
    N13    O79       2.11017      .   S
    Zr78   O80       0.98839      .   S
    N31    O80       2.12529      .   S
    Zr78   O81       0.99923      .   S
    N18    O81       2.15135      .   S
    Zr78   O82       0.99401      .   S
    N6     O82       2.13680      .   S
    Zr83   O84       0.99934  1_655   S
    N14    O84       2.15160  1_556   S
    Zr83   O85       0.99385      .   S
    N36    O85       2.13643      .   S
    Zr83   O86       0.98290      .   S
    N35    O86       2.11028      .   S
    Zr83   O87       0.98875      .   S
    N42    O87       2.12712      .   S
    Zr88   O89       0.97791      .   S
    N11    O89       2.10103      .   S
    Zr88   O90       0.99133      .   S
    N25    O90       2.13370      .   S
    Zr88   O91       1.00621      .   S
    N46    O91       2.16659      .   S
    Zr88   O92       1.00165      .   S
    N21    O92       2.15546      .   S
    Zr93   O94       1.00165  1_655   S
    N29    O94       2.15549  1_565   S
    Zr93   O95       1.00621      .   S
    N8     O95       2.16660      .   S
    Zr93   O96       0.97791      .   S
    N28    O96       2.10103      .   S
    Zr93   O97       0.99131  1_655   S
    N24    O97       2.13365      .   S
    Zr98   O99       0.99980      .   S
    N32    O99       2.15103      .   S
    Zr98   O100      0.99330      .   S
    N19    O100      2.13568      .   S
    Zr98   O101      0.98841      .   S
    N41    O101      2.12298      .   S
    Zr98   O102      0.96980      .   S
    N3     O102      2.08155      .   S
    Zr103  O104      0.99402      .   S
    N44    O104      2.13680      .   S
    Zr103  O105      0.98908      .   S
    N33    O105      2.12740      .   S
    Zr103  O106      0.98286      .   S
    N41    O106      2.11018      .   S
    Zr103  O107      0.99926  1_545   S
    N7     O107      2.15134      .   S
    Zr108  O109      1.00627      .   S
    N28    O109      2.16669      .   S
    Zr108  O110      0.99134  1_545   S
    N47    O110      2.13368      .   S
    Zr108  O111      1.00168  1_545   S
    N16    O111      2.15537  1_455   S
    Zr108  O112      0.97789      .   S
    N8     O112      2.10095      .   S
    Zr113  O114      1.00160      .   S
    N13    O114      2.15524  1_455   S
    Zr113  O115      0.97788      .   S
    N17    O115      2.10094      .   S
    Zr113  O116      1.00627      .   S
    N30    O116      2.16671      .   S
    Zr113  O117      0.99137      .   S
    N37    O117      2.13366      .   S
    Zr118  O119      1.00162  1_655   S
    N31    O119      2.15541      .   S
    Zr118  O120      1.00621      .   S
    N17    O120      2.16660      .   S
    Zr118  O121      0.97791      .   S
    N30    O121      2.10102      .   S
    Zr118  O122      0.99131  1_655   S
    N14    O122      2.13365      .   S
    Zr123  O124      0.99402      .   S
    N18    O124      2.13681      .   S
    Zr123  O125      0.98285      .   S
    N40    O125      2.11017      .   S
    Zr123  O126      0.98906      .   S
    N26    O126      2.12739      .   S
    Zr123  O127      0.99925      .   S
    N6     O127      2.15135      .   S
    Zr128  O129      0.99979      .   S
    N8     O129      2.15100  1_655   S
    Zr128  O130      0.99331      .   S
    N44    O130      2.13569      .   S
    Zr128  O131      0.96980      .   S
    N22    O131      2.08154      .   S
    Zr128  O132      0.98838      .   S
    N1     O132      2.12294  1_655   S
    Zr133  O134      0.97791      .   S
    N10    O134      2.10101      .   S
    Zr133  O135      1.00167  1_455   S
    N9     O135      2.15545  1_545   S
    Zr133  O136      0.99130  1_455   S
    N36    O136      2.13364      .   S
    Zr133  O137      1.00615      .   S
    N4     O137      2.16641      .   S
    Zr138  O139      0.98846      .   S
    N39    O139      2.12301      .   S
    Zr138  O140      0.96981      .   S
    N46    O140      2.08154      .   S
    Zr138  O141      0.99971      .   S
    N2     O141      2.15096      .   S
    Zr138  O142      0.99331      .   S
    N7     O142      2.13568      .   S
    Zr143  O144      0.99341      .   S
    N36    O144      2.13592      .   S
    Zr143  O145      0.98832      .   S
    N9     O145      2.12276  1_545   S
    Zr143  O146      0.96977      .   S
    N0     O146      2.08149      .   S
    Zr143  O147      0.99974      .   S
    N28    O147      2.15101  1_546   S
    Zr148  O149      0.96978      .   S
    N28    O149      2.08149      .   S
    Zr148  O150      0.99969      .   S
    N0     O150      2.15087  1_564   S
    Zr148  O151      0.98898      .   S
    N5     O151      2.12427  1_565   S
    Zr148  O152      0.99340      .   S
    N27    O152      2.13592      .   S
    Zr153  O154      0.99973      .   S
    N30    O154      2.15097  1_556   S
    Zr153  O155      0.98830      .   S
    N35    O155      2.12273      .   S
    Zr153  O156      0.96977      .   S
    N43    O156      2.08147      .   S
    Zr153  O157      0.99340      .   S
    N45    O157      2.13592      .   S
    Zr158  O159      0.98846      .   S
    N29    O159      2.12548      .   S
    Zr158  O160      0.98285      .   S
    N16    O160      2.11017      .   S
    Zr158  O161      0.99926  1_565   S
    N44    O161      2.15139      .   S
    Zr158  O162      0.99402      .   S
    N7     O162      2.13681      .   S
    Zr163  O164      0.99401      .   S
    N19    O164      2.13680      .   S
    Zr163  O165      0.98908      .   S
    N9     O165      2.12740      .   S
    Zr163  O166      0.99928  1_545   S
    N47    O166      2.15139      .   S
    Zr163  O167      0.98285      .   S
    N1     O167      2.11015      .   S
    Zr168  O169      0.97791      .   S
    N12    O169      2.10103      .   S
    Zr168  O170      0.99146  1_455   S
    N45    O170      2.13367      .   S
    Zr168  O171      1.00165  1_455   S
    N35    O171      2.15536      .   S
    Zr168  O172      1.00614      .   S
    N22    O172      2.16640      .   S
    Zr173  O174      0.98906      .   S
    N35    O174      2.12739      .   S
    Zr173  O175      0.99923      .   S
    N37    O175      2.15129      .   S
    Zr173  O176      0.98284      .   S
    N42    O176      2.11014      .   S
    Zr173  O177      0.99402      .   S
    N20    O177      2.13681      .   S
    Zr178  O179      0.99923      .   S
    N20    O179      2.15135      .   S
    Zr178  O180      0.98845      .   S
    N21    O180      2.12547      .   S
    Zr178  O181      0.98286      .   S
    N23    O181      2.11020      .   S
    Zr178  O182      0.99401      .   S
    N37    O182      2.13680      .   S
    Zr183  O184      0.98843      .   S
    N16    O184      2.12298  1_455   S
    Zr183  O185      0.96980      .   S
    N17    O185      2.08154      .   S
    Zr183  O186      0.99331      .   S
    N47    O186      2.13567      .   S
    Zr183  O187      0.99970      .   S
    N4     O187      2.15094  1_455   S
    Zr188  O189      0.99926  1_565   S
    N19    O189      2.15139      .   S
    Zr188  O190      0.98286      .   S
    N39    O190      2.11020      .   S
    Zr188  O191      0.99402      .   S
    N47    O191      2.13681      .   S
    Zr188  O192      0.98840      .   S
    N5     O192      2.12530      .   S
    Zr193  O194      1.00162      .   S
    N40    O194      2.15529      .   S
    Zr193  O195      1.00640      .   S
    N43    O195      2.16666      .   S
    Zr193  O196      0.99133      .   S
    N20    O196      2.13365      .   S
    Zr193  O197      0.97789      .   S
    N3     O197      2.10097      .   S
    Zr198  O199      0.99933  1_655   S
    N24    O199      2.15160  1_556   S
    Zr198  O200      0.99385      .   S
    N45    O200      2.13643      .   S
    Zr198  O201      0.98875      .   S
    N1     O201      2.12712      .   S
    Zr198  O202      0.98292      .   S
    N9     O202      2.11032      .   S
    Zr203  O204      0.98899      .   S
    N16    O204      2.12720      .   S
    Zr203  O205      0.98247      .   S
    N29    O205      2.11026      .   S
    Zr203  O206      0.99386      .   S
    N14    O206      2.13643      .   S
    Zr203  O207      0.99934  1_455   S
    N36    O207      2.15160  1_554   S
    Zr208  O209      1.00622      .   S
    N12    O209      2.16664      .   S
    Zr208  O210      0.99133      .   S
    N18    O210      2.13366      .   S
    Zr208  O211      0.97788      .   S
    N22    O211      2.10096      .   S
    Zr208  O212      1.00160      .   S
    N42    O212      2.15525  1_655   S
    Zr213  O214      0.97791      .   S
    N15    O214      2.10103      .   S
    Zr213  O215      1.00621      .   S
    N32    O215      2.16659      .   S
    Zr213  O216      1.00168      .   S
    N5     O216      2.15554  1_565   S
    Zr213  O217      0.99133      .   S
    N27    O217      2.13370      .   S
    Zr218  O219      0.99340      .   S
    N34    O219      2.13592      .   S
    Zr218  O220      0.99973      .   S
    N11    O220      2.15097  1_556   S
    Zr218  O221      0.96978      .   S
    N12    O221      2.08147      .   S
    Zr218  O222      0.98830      .   S
    N26    O222      2.12273      .   S
    Zr223  O224      0.99935      .   S
    N25    O224      2.15163  1_556   S
    Zr223  O225      0.98876      .   S
    N40    O225      2.12713      .   S
    Zr223  O226      0.99385      .   S
    N38    O226      2.13642      .   S
    Zr223  O227      0.98290      .   S
    N26    O227      2.11028      .   S
    Zr228  O229      0.96980      .   S
    N8     O229      2.08154      .   S
    Zr228  O230      0.98844      .   S
    N13    O230      2.12299  1_455   S
    Zr228  O231      0.99970      .   S
    N22    O231      2.15094  1_455   S
    Zr228  O232      0.99331      .   S
    N37    O232      2.13567      .   S
    Zr233  O234      0.99135  1_565   S
    N19    O234      2.13371      .   S
    Zr233  O235      1.00169  1_565   S
    N41    O235      2.15541      .   S
    Zr233  O236      1.00639      .   S
    N0     O236      2.16665      .   S
    Zr233  O237      0.97789      .   S
    N2     O237      2.10097      .   S
    Zr238  O239      0.96977      .   S
    N10    O239      2.08149      .   S
    Zr238  O240      0.99974      .   S
    N15    O240      2.15101  1_546   S
    Zr238  O241      0.99341      .   S
    N38    O241      2.13592      .   S
    Zr238  O242      0.98832      .   S
    N33    O242      2.12276  1_545   S
    Zr243  O244      0.98244      .   S
    N31    O244      2.11020      .   S
    Zr243  O245      0.98899      .   S
    N13    O245      2.12720      .   S
    Zr243  O246      0.99386      .   S
    N24    O246      2.13642      .   S
    Zr243  O247      0.99929  1_455   S
    N45    O247      2.15145  1_554   S
    Zr248  O249      1.00627      .   S
    N11    O249      2.16671      .   S
    Zr248  O250      1.00162      .   S
    N23    O250      2.15528      .   S
    Zr248  O251      0.99132      .   S
    N6     O251      2.13364      .   S
    Zr248  O252      0.97789      .   S
    N46    O252      2.10096      .   S
    Zr253  O254      0.96981      .   S
    N32    O254      2.08155      .   S
    Zr253  O255      0.98846      .   S
    N23    O255      2.12301      .   S
    Zr253  O256      0.99971      .   S
    N3     O256      2.15097      .   S
    Zr253  O257      0.99331      .   S
    N6     O257      2.13567      .   S
    Zr258  O259      0.98881      .   S
    N21    O259      2.12424      .   S
    Zr258  O260      0.99967      .   S
    N43    O260      2.15082  1_554   S
    Zr258  O261      0.96977      .   S
    N30    O261      2.08146      .   S
    Zr258  O262      0.99341      .   S
    N25    O262      2.13592      .   S
    Zr263  O264      0.99330      .   S
    N20    O264      2.13568      .   S
    Zr263  O265      0.99979      .   S
    N46    O265      2.15103      .   S
    Zr263  O266      0.96980      .   S
    N2     O266      2.08154      .   S
    Zr263  O267      0.98841      .   S
    N40    O267      2.12297      .   S
    Zr268  O269      0.98900      .   S
    N39    O269      2.12720      .   S
    Zr268  O270      0.99935      .   S
    N38    O270      2.15163  1_554   S
    Zr268  O271      0.99386      .   S
    N25    O271      2.13643      .   S
    Zr268  O272      0.98245      .   S
    N5     O272      2.11023      .   S
    Zr273  O274      1.00627      .   S
    N15    O274      2.16670      .   S
    Zr273  O275      0.97789      .   S
    N32    O275      2.10096      .   S
    Zr273  O276      1.00169  1_545   S
    N39    O276      2.15541      .   S
    Zr273  O277      0.99138  1_545   S
    N7     O277      2.13370      .   S
    Zr278  O279      0.98246      .   S
    N21    O279      2.11022      .   S
    Zr278  O280      0.99935      .   S
    N34    O280      2.15162  1_554   S
    Zr278  O281      0.98900      .   S
    N23    O281      2.12720      .   S
    Zr278  O282      0.99386      .   S
    N27    O282      2.13643      .   S
    Zr283  O284      0.99972      .   S
    N12    O284      2.15095  1_554   S
    Zr283  O285      0.99340      .   S
    N14    O285      2.13592      .   S
    Zr283  O286      0.96977      .   S
    N11    O286      2.08146      .   S
    Zr283  O287      0.98896      .   S
    N31    O287      2.12426      .   S
