# CIF file generated by openbabel 2.4.90, see http://openbabel.sf.net
data_I
_chemical_name_common 'VESTA_phase_1'
_cell_length_a 18.597
_cell_length_b 22.63
_cell_length_c 16.545
_cell_angle_alpha 107.033
_cell_angle_beta 90.063
_cell_angle_gamma 114.039
_space_group_name_H-M_alt 'P 1'
_space_group_name_Hall 'P 1'
loop_
    _symmetry_equiv_pos_as_xyz
    x,y,z
loop_
    _atom_site_label
    _atom_site_type_symbol
    _atom_site_fract_x
    _atom_site_fract_y
    _atom_site_fract_z
    _atom_site_occupancy
    Zn0     Zn   0.07268   0.33590   0.72932   1.000
    Zn1     Zn   0.07267   0.83591   0.72932   1.000
    Zn2     Zn   0.57267   0.33591   0.72932   1.000
    Zn3     Zn   0.57266   0.83591   0.72932   1.000
    Zn4     Zn   0.23741   0.16365   0.77075   1.000
    Zn5     Zn   0.23740   0.66365   0.77075   1.000
    Zn6     Zn   0.73739   0.16365   0.77075   1.000
    Zn7     Zn   0.73739   0.66365   0.77075   1.000
    Zn8     Zn   0.42732   0.16413   0.27070   1.000
    Zn9     Zn   0.42731   0.66413   0.27070   1.000
    Zn10    Zn   0.92731   0.16413   0.27070   1.000
    Zn11    Zn   0.92730   0.66413   0.27070   1.000
    Zn12    Zn   0.26259   0.33638   0.22927   1.000
    Zn13    Zn   0.26259   0.83638   0.22927   1.000
    Zn14    Zn   0.76258   0.33638   0.22927   1.000
    Zn15    Zn   0.76258   0.83638   0.22927   1.000
    Zn16    Zn   0.12467   0.00006   0.74999   1.000
    Zn17    Zn   0.12466   0.50007   0.74999   1.000
    Zn18    Zn   0.62465   0.00007   0.74999   1.000
    Zn19    Zn   0.62465   0.50007   0.74999   1.000
    Zn20    Zn   0.37533   0.99997   0.25000   1.000
    Zn21    Zn   0.37533   0.49998   0.25000   1.000
    Zn22    Zn   0.87532   0.99997   0.25000   1.000
    Zn23    Zn   0.87532   0.49997   0.25000   1.000
    H24     H    0.46734   0.26745   0.46953   1.000
    H25     H    0.46733   0.76745   0.46953   1.000
    H26     H    0.96733   0.26744   0.46950   1.000
    H27     H    0.96732   0.76745   0.46953   1.000
    H28     H    0.36442   0.42964   0.41902   1.000
    H29     H    0.36441   0.92964   0.41903   1.000
    H30     H    0.86440   0.42964   0.41903   1.000
    H31     H    0.86440   0.92964   0.41900   1.000
    H32     H    0.44898   0.45962   0.55530   1.000
    H33     H    0.44897   0.95962   0.55530   1.000
    H34     H    0.94896   0.45961   0.55530   1.000
    H35     H    0.94896   0.95962   0.55530   1.000
    H36     H    0.38530   0.19290   0.10530   1.000
    H37     H    0.38530   0.69290   0.10533   1.000
    H38     H    0.88529   0.19289   0.10530   1.000
    H39     H    0.88528   0.69290   0.10534   1.000
    H40     H    0.27925   0.21708   0.12782   1.000
    H41     H    0.27925   0.71709   0.12782   1.000
    H42     H    0.77924   0.21708   0.12782   1.000
    H43     H    0.77923   0.71709   0.12782   1.000
    H44     H    0.18617   0.09808   0.11148   1.000
    H45     H    0.18616   0.59808   0.11148   1.000
    H46     H    0.68616   0.09808   0.11148   1.000
    H47     H    0.68615   0.59808   0.11148   1.000
    H48     H    0.23142   0.10413   0.21130   1.000
    H49     H    0.23142   0.60413   0.21130   1.000
    H50     H    0.73141   0.10413   0.21130   1.000
    H51     H    0.73140   0.60413   0.21130   1.000
    H52     H    0.17727   0.15304   0.20874   1.000
    H53     H    0.17726   0.65304   0.20874   1.000
    H54     H    0.67726   0.15303   0.20874   1.000
    H55     H    0.67725   0.65304   0.20874   1.000
    H56     H    0.17098   0.44181   0.83808   1.000
    H57     H    0.17098   0.94182   0.83808   1.000
    H58     H    0.67097   0.44182   0.83808   1.000
    H59     H    0.67096   0.94182   0.83808   1.000
    H60     H    0.19974   0.23325   0.03030   1.000
    H61     H    0.19973   0.73325   0.03030   1.000
    H62     H    0.69972   0.23325   0.03030   1.000
    H63     H    0.69972   0.73325   0.03030   1.000
    H64     H    0.43612   0.07112   0.08099   1.000
    H65     H    0.43612   0.57113   0.08099   1.000
    H66     H    0.93612   0.07112   0.08100   1.000
    H67     H    0.93611   0.57113   0.08100   1.000
    H68     H    0.49055   0.04118   0.94462   1.000
    H69     H    0.49054   0.54119   0.94462   1.000
    H70     H    0.99054   0.04118   0.94462   1.000
    H71     H    0.99053   0.54118   0.94462   1.000
    H72     H    0.19311   0.30791   0.39404   1.000
    H73     H    0.19310   0.80792   0.39404   1.000
    H74     H    0.69310   0.30791   0.39404   1.000
    H75     H    0.69309   0.80791   0.39404   1.000
    H76     H    0.06291   0.28373   0.37237   1.000
    H77     H    0.06290   0.78373   0.37237   1.000
    H78     H    0.56289   0.28372   0.37237   1.000
    H79     H    0.56289   0.78373   0.37237   1.000
    H80     H    0.08767   0.40269   0.38873   1.000
    H81     H    0.08766   0.90269   0.38873   1.000
    H82     H    0.58766   0.40269   0.38874   1.000
    H83     H    0.58765   0.90269   0.38870   1.000
    H84     H    0.12638   0.39660   0.28872   1.000
    H85     H    0.12637   0.89660   0.28872   1.000
    H86     H    0.62637   0.39660   0.28870   1.000
    H87     H    0.62636   0.89661   0.28872   1.000
    H88     H    0.02383   0.34773   0.29164   1.000
    H89     H    0.02382   0.84773   0.29164   1.000
    H90     H    0.52382   0.34773   0.29165   1.000
    H91     H    0.52381   0.84774   0.29165   1.000
    H92     H    0.22981   0.05732   0.66236   1.000
    H93     H    0.22980   0.55732   0.66236   1.000
    H94     H    0.72979   0.05732   0.66236   1.000
    H95     H    0.72979   0.55732   0.66236   1.000
    H96     H    0.03266   0.23258   0.53050   1.000
    H97     H    0.03265   0.73259   0.53000   1.000
    H98     H    0.53265   0.23259   0.53049   1.000
    H99     H    0.53264   0.73259   0.53050   1.000
    H100    H    0.13558   0.07039   0.58099   1.000
    H101    H    0.13557   0.57039   0.58100   1.000
    H102    H    0.63556   0.07039   0.58100   1.000
    H103    H    0.63556   0.57040   0.58000   1.000
    H104    H    0.05102   0.04041   0.44472   1.000
    H105    H    0.05101   0.54042   0.44472   1.000
    H106    H    0.55101   0.04041   0.44472   1.000
    H107    H    0.55100   0.54042   0.44472   1.000
    H108    H    0.11470   0.30714   0.89460   1.000
    H109    H    0.11469   0.80715   0.89468   1.000
    H110    H    0.61469   0.30715   0.89468   1.000
    H111    H    0.61468   0.80715   0.89468   1.000
    H112    H    0.22075   0.28295   0.87220   1.000
    H113    H    0.22074   0.78295   0.87220   1.000
    H114    H    0.72073   0.28295   0.87220   1.000
    H115    H    0.72073   0.78296   0.87220   1.000
    H116    H    0.31383   0.40195   0.88854   1.000
    H117    H    0.31383   0.90195   0.88853   1.000
    H118    H    0.81383   0.40195   0.88853   1.000
    H119    H    0.81382   0.90196   0.88854   1.000
    H120    H    0.26858   0.39590   0.78871   1.000
    H121    H    0.26857   0.89590   0.78871   1.000
    H122    H    0.76857   0.39590   0.78871   1.000
    H123    H    0.76856   0.89591   0.78871   1.000
    H124    H    0.32273   0.34699   0.79127   1.000
    H125    H    0.32273   0.84699   0.79127   1.000
    H126    H    0.82272   0.34699   0.79127   1.000
    H127    H    0.82271   0.84700   0.79127   1.000
    H128    H    0.32902   0.05822   0.16194   1.000
    H129    H    0.32902   0.55823   0.16194   1.000
    H130    H    0.82901   0.05822   0.16194   1.000
    H131    H    0.82900   0.55822   0.16194   1.000
    H132    H    0.30026   0.26679   0.96972   1.000
    H133    H    0.30026   0.76679   0.96972   1.000
    H134    H    0.80025   0.26678   0.96972   1.000
    H135    H    0.80024   0.76679   0.96972   1.000
    H136    H    0.06387   0.42890   0.91903   1.000
    H137    H    0.06387   0.92891   0.91900   1.000
    H138    H    0.56386   0.42891   0.91902   1.000
    H139    H    0.56385   0.92891   0.91902   1.000
    H140    H    0.00945   0.45885   0.05540   1.000
    H141    H    0.00944   0.95885   0.05540   1.000
    H142    H    0.50943   0.45885   0.05540   1.000
    H143    H    0.50943   0.95886   0.05540   1.000
    H144    H    0.30689   0.19212   0.60598   1.000
    H145    H    0.30688   0.69212   0.60598   1.000
    H146    H    0.80688   0.19212   0.60598   1.000
    H147    H    0.80687   0.69213   0.60598   1.000
    H148    H    0.43709   0.21630   0.62765   1.000
    H149    H    0.43708   0.71631   0.62765   1.000
    H150    H    0.93708   0.21630   0.62765   1.000
    H151    H    0.93707   0.71631   0.62765   1.000
    H152    H    0.41233   0.09734   0.61129   1.000
    H153    H    0.41232   0.59735   0.61129   1.000
    H154    H    0.91231   0.09734   0.61128   1.000
    H155    H    0.91231   0.59735   0.61128   1.000
    H156    H    0.37362   0.10343   0.71130   1.000
    H157    H    0.37361   0.60343   0.71130   1.000
    H158    H    0.87360   0.10343   0.71129   1.000
    H159    H    0.87360   0.60343   0.71129   1.000
    H160    H    0.47617   0.15230   0.70838   1.000
    H161    H    0.47616   0.65230   0.70838   1.000
    H162    H    0.97615   0.15229   0.70837   1.000
    H163    H    0.97615   0.65230   0.70837   1.000
    H164    H    0.27019   0.44271   0.33765   1.000
    H165    H    0.27018   0.94272   0.33765   1.000
    H166    H    0.77018   0.44271   0.33766   1.000
    H167    H    0.77017   0.94272   0.33766   1.000
    C168    C    0.44531   0.30255   0.45858   1.000
    C169    C    0.44530   0.80256   0.45858   1.000
    C170    C    0.94529   0.30255   0.45858   1.000
    C171    C    0.94529   0.80256   0.45858   1.000
    C172    C    0.01247   0.38495   0.60336   1.000
    C173    C    0.01246   0.88495   0.60336   1.000
    C174    C    0.51245   0.38495   0.60336   1.000
    C175    C    0.51245   0.88496   0.60336   1.000
    C176    C    0.46202   0.36532   0.52098   1.000
    C177    C    0.46202   0.86532   0.52098   1.000
    C178    C    0.96201   0.36532   0.52098   1.000
    C179    C    0.96200   0.86532   0.52098   1.000
    C180    C    0.38585   0.39416   0.43015   1.000
    C181    C    0.38584   0.89416   0.43015   1.000
    C182    C    0.88584   0.39416   0.43015   1.000
    C183    C    0.88584   0.89416   0.43015   1.000
    C184    C    0.40036   0.28682   0.38147   1.000
    C185    C    0.40035   0.78683   0.38147   1.000
    C186    C    0.90035   0.28682   0.38140   1.000
    C187    C    0.90034   0.78682   0.38147   1.000
    C188    C    0.33409   0.24187   0.25340   1.000
    C189    C    0.33409   0.74187   0.25340   1.000
    C190    C    0.83408   0.24186   0.25340   1.000
    C191    C    0.83407   0.74187   0.25340   1.000
    C192    C    0.36883   0.33120   0.36766   1.000
    C193    C    0.36882   0.83120   0.36766   1.000
    C194    C    0.86882   0.33119   0.36766   1.000
    C195    C    0.86881   0.83120   0.36766   1.000
    C196    C    0.43310   0.41072   0.50578   1.000
    C197    C    0.43309   0.91072   0.50579   1.000
    C198    C    0.93308   0.41071   0.50579   1.000
    C199    C    0.93308   0.91072   0.50578   1.000
    C200    C    0.29329   0.19052   0.16723   1.000
    C201    C    0.29329   0.69053   0.16723   1.000
    C202    C    0.79328   0.19052   0.16723   1.000
    C203    C    0.79327   0.69053   0.16723   1.000
    C204    C    0.21722   0.13263   0.17521   1.000
    C205    C    0.21721   0.63263   0.17521   1.000
    C206    C    0.71721   0.13263   0.17521   1.000
    C207    C    0.71720   0.63263   0.17521   1.000
    C208    C    0.14291   0.19816   0.04126   1.000
    C209    C    0.14290   0.69816   0.04126   1.000
    C210    C    0.64290   0.19816   0.04126   1.000
    C211    C    0.64289   0.69817   0.04126   1.000
    C212    C    0.12800   0.11561   0.89658   1.000
    C213    C    0.12799   0.61562   0.89658   1.000
    C214    C    0.62799   0.11561   0.89658   1.000
    C215    C    0.62799   0.61562   0.89658   1.000
    C216    C    0.09724   0.13541   0.97890   1.000
    C217    C    0.09723   0.63541   0.97890   1.000
    C218    C    0.59722   0.13541   0.97893   1.000
    C219    C    0.59722   0.63541   0.97893   1.000
    C220    C    0.49270   0.10658   0.06982   1.000
    C221    C    0.49269   0.60659   0.06982   1.000
    C222    C    0.99269   0.10658   0.06982   1.000
    C223    C    0.99268   0.60659   0.06982   1.000
    C224    C    0.11376   0.21390   0.11841   1.000
    C225    C    0.11375   0.71390   0.11841   1.000
    C226    C    0.61375   0.21390   0.11841   1.000
    C227    C    0.61374   0.71390   0.11841   1.000
    C228    C    0.09243   0.25884   0.24653   1.000
    C229    C    0.09243   0.75885   0.24653   1.000
    C230    C    0.59242   0.25884   0.24653   1.000
    C231    C    0.59242   0.75885   0.24653   1.000
    C232    C    0.03831   0.16953   0.13231   1.000
    C233    C    0.03830   0.66953   0.13231   1.000
    C234    C    0.53830   0.16952   0.13231   1.000
    C235    C    0.53829   0.66953   0.13231   1.000
    C236    C    0.02332   0.09006   0.99416   1.000
    C237    C    0.02331   0.59006   0.99416   1.000
    C238    C    0.52330   0.09006   0.99416   1.000
    C239    C    0.52330   0.59006   0.99416   1.000
    C240    C    0.10295   0.31022   0.33273   1.000
    C241    C    0.10294   0.81022   0.33273   1.000
    C242    C    0.60294   0.31022   0.33274   1.000
    C243    C    0.60293   0.81022   0.33274   1.000
    C244    C    0.08415   0.36812   0.32495   1.000
    C245    C    0.08415   0.86812   0.32495   1.000
    C246    C    0.58414   0.36811   0.32495   1.000
    C247    C    0.58414   0.86812   0.32495   1.000
    C248    C    0.05469   0.19748   0.54144   1.000
    C249    C    0.05469   0.69748   0.54144   1.000
    C250    C    0.55468   0.19748   0.54144   1.000
    C251    C    0.55467   0.69748   0.54144   1.000
    C252    C    0.48751   0.11508   0.39667   1.000
    C253    C    0.48752   0.61508   0.39660   1.000
    C254    C    0.98751   0.11508   0.39666   1.000
    C255    C    0.98750   0.61508   0.39667   1.000
    C256    C    0.03797   0.13471   0.47904   1.000
    C257    C    0.03796   0.63471   0.47904   1.000
    C258    C    0.53795   0.13471   0.47905   1.000
    C259    C    0.53796   0.63472   0.47904   1.000
    C260    C    0.11415   0.10587   0.56987   1.000
    C261    C    0.11414   0.60587   0.56987   1.000
    C262    C    0.61413   0.10587   0.56987   1.000
    C263    C    0.61413   0.60588   0.56987   1.000
    C264    C    0.09964   0.21321   0.61856   1.000
    C265    C    0.09963   0.71321   0.61856   1.000
    C266    C    0.59962   0.21321   0.61856   1.000
    C267    C    0.59962   0.71322   0.61856   1.000
    C268    C    0.16591   0.25816   0.74662   1.000
    C269    C    0.16590   0.75817   0.74662   1.000
    C270    C    0.66590   0.25817   0.74662   1.000
    C271    C    0.66589   0.75817   0.74662   1.000
    C272    C    0.13117   0.16883   0.63236   1.000
    C273    C    0.13116   0.66884   0.63236   1.000
    C274    C    0.63116   0.16884   0.63236   1.000
    C275    C    0.63115   0.66884   0.63230   1.000
    C276    C    0.06690   0.08932   0.49424   1.000
    C277    C    0.06689   0.58932   0.49424   1.000
    C278    C    0.56689   0.08932   0.49420   1.000
    C279    C    0.56688   0.58932   0.49424   1.000
    C280    C    0.20671   0.30951   0.83279   1.000
    C281    C    0.20670   0.80951   0.83279   1.000
    C282    C    0.70669   0.30951   0.83270   1.000
    C283    C    0.70669   0.80952   0.83279   1.000
    C284    C    0.28278   0.36740   0.82480   1.000
    C285    C    0.28278   0.86740   0.82480   1.000
    C286    C    0.78277   0.36740   0.82480   1.000
    C287    C    0.78277   0.86741   0.82480   1.000
    C288    C    0.35709   0.30187   0.95876   1.000
    C289    C    0.35708   0.80187   0.95876   1.000
    C290    C    0.85707   0.30187   0.95876   1.000
    C291    C    0.85707   0.80187   0.95876   1.000
    C292    C    0.37200   0.38442   0.10344   1.000
    C293    C    0.37199   0.88443   0.10344   1.000
    C294    C    0.87198   0.38442   0.10344   1.000
    C295    C    0.87198   0.88443   0.10344   1.000
    C296    C    0.40276   0.36463   0.02109   1.000
    C297    C    0.40276   0.86463   0.02100   1.000
    C298    C    0.90275   0.36462   0.02109   1.000
    C299    C    0.90275   0.86463   0.02109   1.000
    C300    C    0.00730   0.39344   0.93020   1.000
    C301    C    0.00730   0.89345   0.93020   1.000
    C302    C    0.50729   0.39345   0.93020   1.000
    C303    C    0.50728   0.89345   0.93020   1.000
    C304    C    0.38624   0.28613   0.88161   1.000
    C305    C    0.38623   0.78614   0.88161   1.000
    C306    C    0.88622   0.28613   0.88161   1.000
    C307    C    0.88622   0.78614   0.88161   1.000
    C308    C    0.40757   0.24119   0.75349   1.000
    C309    C    0.40756   0.74119   0.75349   1.000
    C310    C    0.90755   0.24119   0.75349   1.000
    C311    C    0.90755   0.74119   0.75349   1.000
    C312    C    0.46169   0.33051   0.86771   1.000
    C313    C    0.46168   0.83051   0.86771   1.000
    C314    C    0.96167   0.33050   0.86771   1.000
    C315    C    0.96167   0.83051   0.86771   1.000
    C316    C    0.47668   0.40998   0.00586   1.000
    C317    C    0.47667   0.90998   0.00586   1.000
    C318    C    0.97667   0.40997   0.00586   1.000
    C319    C    0.97666   0.90998   0.00586   1.000
    C320    C    0.39705   0.18981   0.66729   1.000
    C321    C    0.39704   0.68981   0.66729   1.000
    C322    C    0.89703   0.18981   0.66729   1.000
    C323    C    0.89703   0.68982   0.66729   1.000
    C324    C    0.41585   0.13191   0.67507   1.000
    C325    C    0.41584   0.63192   0.67507   1.000
    C326    C    0.91583   0.13191   0.67507   1.000
    C327    C    0.91582   0.63192   0.67507   1.000
    N328    N    0.37850   0.23103   0.30727   1.000
    N329    N    0.37849   0.73104   0.30727   1.000
    N330    N    0.87848   0.23103   0.30727   1.000
    N331    N    0.87848   0.73104   0.30727   1.000
    N332    N    0.32607   0.30101   0.28603   1.000
    N333    N    0.32606   0.80101   0.28600   1.000
    N334    N    0.82605   0.30100   0.28603   1.000
    N335    N    0.82605   0.80101   0.28600   1.000
    N336    N    0.14739   0.26969   0.19250   1.000
    N337    N    0.14738   0.76969   0.19250   1.000
    N338    N    0.64738   0.26969   0.19259   1.000
    N339    N    0.64737   0.76970   0.19259   1.000
    N340    N    0.02573   0.19968   0.21400   1.000
    N341    N    0.02572   0.69968   0.21400   1.000
    N342    N    0.52571   0.19968   0.21400   1.000
    N343    N    0.52571   0.69969   0.21400   1.000
    N344    N    0.12150   0.26899   0.69275   1.000
    N345    N    0.12150   0.76900   0.69275   1.000
    N346    N    0.62149   0.26900   0.69275   1.000
    N347    N    0.62148   0.76900   0.69275   1.000
    N348    N    0.17393   0.19902   0.71399   1.000
    N349    N    0.17393   0.69903   0.71399   1.000
    N350    N    0.67392   0.19903   0.71399   1.000
    N351    N    0.67391   0.69903   0.71399   1.000
    N352    N    0.35261   0.23034   0.80744   1.000
    N353    N    0.35260   0.73034   0.80744   1.000
    N354    N    0.85259   0.23034   0.80744   1.000
    N355    N    0.85259   0.73035   0.80744   1.000
    N356    N    0.47427   0.30035   0.78602   1.000
    N357    N    0.47427   0.80035   0.78602   1.000
    N358    N    0.97426   0.30035   0.78602   1.000
    N359    N    0.97426   0.80035   0.78602   1.000
    O360    O    0.03722   0.44690   0.65207   1.000
    O361    O    0.03722   0.94690   0.65206   1.000
    O362    O    0.53721   0.44690   0.65206   1.000
    O363    O    0.53721   0.94690   0.65207   1.000
    O364    O    0.14676   0.43176   0.78079   1.000
    O365    O    0.14675   0.93176   0.78079   1.000
    O366    O    0.64674   0.43176   0.78079   1.000
    O367    O    0.64674   0.93176   0.78079   1.000
    O368    O    0.02761   0.33865   0.61863   1.000
    O369    O    0.02761   0.83865   0.61863   1.000
    O370    O    0.52760   0.33865   0.61863   1.000
    O371    O    0.52759   0.83865   0.61863   1.000
    O372    O    0.34381   0.15976   0.12580   1.000
    O373    O    0.34381   0.65976   0.12580   1.000
    O374    O    0.84380   0.15975   0.12580   1.000
    O375    O    0.84379   0.65975   0.12581   1.000
    O376    O    0.09055   0.05384   0.84758   1.000
    O377    O    0.09055   0.55384   0.84758   1.000
    O378    O    0.59054   0.05384   0.84758   1.000
    O379    O    0.59053   0.55385   0.84757   1.000
    O380    O    0.21569   0.06759   0.71964   1.000
    O381    O    0.21569   0.56759   0.71964   1.000
    O382    O    0.71568   0.06759   0.71963   1.000
    O383    O    0.71567   0.56760   0.71963   1.000
    O384    O    0.18962   0.16153   0.88157   1.000
    O385    O    0.18961   0.66153   0.88157   1.000
    O386    O    0.68961   0.16153   0.88157   1.000
    O387    O    0.68960   0.66154   0.88157   1.000
    O388    O    0.18422   0.34103   0.37372   1.000
    O389    O    0.18421   0.84103   0.37372   1.000
    O390    O    0.68421   0.34103   0.37372   1.000
    O391    O    0.68420   0.84103   0.37372   1.000
    O392    O    0.46277   0.05313   0.34795   1.000
    O393    O    0.46276   0.55314   0.34796   1.000
    O394    O    0.96276   0.05313   0.34796   1.000
    O395    O    0.96275   0.55313   0.34796   1.000
    O396    O    0.35323   0.06828   0.21923   1.000
    O397    O    0.35323   0.56828   0.21923   1.000
    O398    O    0.85322   0.06828   0.21923   1.000
    O399    O    0.85322   0.56828   0.21923   1.000
    O400    O    0.47239   0.16138   0.38139   1.000
    O401    O    0.47238   0.66139   0.38139   1.000
    O402    O    0.97238   0.16138   0.38139   1.000
    O403    O    0.97237   0.66138   0.38139   1.000
    O404    O    0.15619   0.34028   0.87421   1.000
    O405    O    0.15618   0.84029   0.87421   1.000
    O406    O    0.65618   0.34029   0.87421   1.000
    O407    O    0.65617   0.84029   0.87421   1.000
    O408    O    0.40943   0.44620   0.15243   1.000
    O409    O    0.40943   0.94620   0.15243   1.000
    O410    O    0.90942   0.44619   0.15244   1.000
    O411    O    0.90942   0.94620   0.15240   1.000
    O412    O    0.28431   0.43244   0.28038   1.000
    O413    O    0.28430   0.93244   0.28038   1.000
    O414    O    0.78429   0.43244   0.28038   1.000
    O415    O    0.78429   0.93244   0.28038   1.000
    O416    O    0.31039   0.33851   0.11840   1.000
    O417    O    0.31038   0.83851   0.11845   1.000
    O418    O    0.81037   0.33850   0.11840   1.000
    O419    O    0.81037   0.83851   0.11840   1.000
    O420    O    0.31578   0.15900   0.62630   1.000
    O421    O    0.31577   0.65900   0.62630   1.000
    O422    O    0.81576   0.15900   0.62630   1.000
    O423    O    0.81576   0.65901   0.62630   1.000
loop_
    _geom_bond_atom_site_label_1
    _geom_bond_atom_site_label_2
    _geom_bond_distance
    _geom_bond_site_symmetry_2
    _ccdc_geom_bond_type
    C316   C296      1.41749      .   S
    C316   H142      1.08863      .   S
    C316   C302      1.38983  1_554   S
    C317   C297      1.41690      .   S
    C317   H143      1.08862      .   S
    C317   C303      1.38984  1_554   S
    C318   C298      1.41752      .   S
    C318   H140      1.08869  1_655   S
    C318   C300      1.39006  1_654   S
    C319   C299      1.41749      .   S
    C319   H141      1.08869  1_655   S
    C319   C301      1.39007  1_654   S
    C297   C293      1.49702      .   S
    C297   C289      1.39903  1_554   S
    C299   C295      1.49580      .   S
    C299   C291      1.39967  1_554   S
    C298   C294      1.49580      .   S
    C298   C290      1.39969  1_554   S
    C296   C292      1.49580      .   S
    C296   C288      1.39969  1_554   S
    H60    C208      1.08684      .   S
    H61    C209      1.08684      .   S
    H62    C210      1.08684      .   S
    H63    C211      1.08683      .   S
    C208   C224      1.39375      .   S
    C208   C216      1.39988  1_554   S
    C211   C227      1.39374      .   S
    C211   C219      1.39967  1_554   S
    C210   C226      1.39375      .   S
    C210   C218      1.39966  1_554   S
    C209   C225      1.39375      .   S
    C209   C217      1.39988  1_554   S
    C220   H64       1.08831      .   S
    C220   C234      1.40289      .   S
    C220   C238      1.38982  1_554   S
    C221   H65       1.08831      .   S
    C221   C235      1.40290      .   S
    C221   C239      1.38980  1_554   S
    C222   H66       1.08836      .   S
    C222   C232      1.40299  1_655   S
    C222   C236      1.39007  1_654   S
    C223   H67       1.08835      .   S
    C223   C233      1.40300  1_655   S
    C223   C237      1.39008  1_654   S
    C293   O417      1.27910      .   S
    C293   O409      1.27986      .   S
    C294   O418      1.27872      .   S
    C294   O410      1.27989      .   S
    C295   O419      1.27875      .   S
    C295   O411      1.27967      .   S
    C292   O416      1.27873      .   S
    C292   O408      1.27984      .   S
    H36    O372      0.97523      .   S
    H38    O374      0.97523      .   S
    H37    O373      0.97494      .   S
    H39    O375      0.97495      .   S
    H47    C207      1.09744      .   S
    H46    C206      1.09744      .   S
    H44    C204      1.09744      .   S
    H45    C205      1.09744      .   S
    O416   Zn12      2.04390      .   S
    O419   Zn15      2.04388      .   S
    O418   Zn14      2.04389      .   S
    C225   C233      1.42063      .   S
    C225   N337      1.39145      .   S
    C227   C235      1.42064      .   S
    C227   N339      1.39235      .   S
    C226   C234      1.42064      .   S
    C226   N338      1.39235      .   S
    C224   C232      1.42063      .   S
    C224   N336      1.39144      .   S
    O417   Zn13      2.04313      .   S
    O374   C202      1.44643      .   S
    O373   C201      1.44642      .   S
    O372   C200      1.44642      .   S
    O375   C203      1.44637      .   S
    H42    C202      1.10077      .   S
    H41    C201      1.10078      .   S
    H40    C200      1.10078      .   S
    H43    C203      1.10076      .   S
    C232   N340      1.39199      .   S
    C233   N341      1.39200      .   S
    C234   N342      1.39199      .   S
    C235   N343      1.39198      .   S
    O411   Zn22      1.99249      .   S
    O409   Zn20      1.99216      .   S
    O408   Zn21      1.99234      .   S
    O410   Zn23      1.99226      .   S
    H131   O399      0.97066      .   S
    H130   O398      0.97064      .   S
    H128   O396      0.97064      .   S
    H129   O397      0.97064      .   S
    C200   C204      1.52551      .   S
    C200   C188      1.50571      .   S
    C201   C205      1.52551      .   S
    C201   C189      1.50570      .   S
    C202   C206      1.52551      .   S
    C202   C190      1.50570      .   S
    C203   C207      1.52552      .   S
    C203   C191      1.50571      .   S
    C207   H55       1.09695      .   S
    C207   H51       1.09837      .   S
    C204   H52       1.09695      .   S
    C204   H48       1.09838      .   S
    C205   H53       1.09696      .   S
    C205   H49       1.09838      .   S
    C206   H54       1.09694      .   S
    C206   H50       1.09838      .   S
    N337   Zn13      2.01562      .   S
    N337   C229      1.35283      .   S
    N336   Zn12      2.01561      .   S
    N336   C228      1.35282      .   S
    N338   Zn14      2.01548      .   S
    N338   C230      1.35177      .   S
    N339   Zn15      2.01550      .   S
    N339   C231      1.35175      .   S
    N340   C228      1.35807      .   S
    N340   Zn10      2.03067  1_455   S
    N342   C230      1.35808      .   S
    N342   Zn8       2.03032      .   S
    N343   C231      1.35806      .   S
    N343   Zn9       2.03032      .   S
    N341   C229      1.35806      .   S
    N341   Zn11      2.03067  1_455   S
    O396   Zn20      1.94827  1_545   S
    O397   Zn21      1.94827      .   S
    O398   Zn22      1.94826  1_545   S
    O399   Zn23      1.94829      .   S
    Zn13   N333      2.03042      .   S
    Zn14   N334      2.03074      .   S
    Zn15   N335      2.03043      .   S
    Zn12   N332      2.03074      .   S
    C228   C240      1.50555      .   S
    C229   C241      1.50553      .   S
    C230   C242      1.50566      .   S
    C231   C243      1.50565      .   S
    Zn22   O415      1.94882      .   S
    Zn22   O394      1.99406  1_565   S
    Zn23   O414      1.94884      .   S
    Zn23   O395      1.99407      .   S
    Zn21   O412      1.94885      .   S
    Zn21   O393      1.99405      .   S
    Zn20   O413      1.94885      .   S
    Zn20   O392      1.99401  1_565   S
    C188   N332      1.35814      .   S
    C188   N328      1.35193      .   S
    C189   N333      1.35810      .   S
    C189   N329      1.35191      .   S
    C190   N334      1.35815      .   S
    C190   N330      1.35191      .   S
    C191   N335      1.35811      .   S
    C191   N331      1.35191      .   S
    Zn10   N330      2.01678      .   S
    Zn10   O402      2.04109      .   S
    Zn8    N328      2.01677      .   S
    Zn8    O400      2.04112      .   S
    Zn9    N329      2.01679      .   S
    Zn9    O401      2.04108      .   S
    Zn11   N331      2.01679      .   S
    Zn11   O403      2.04110      .   S
    O412   H164      0.97057      .   S
    O413   H165      0.97058      .   S
    O414   H166      0.97071      .   S
    O415   H167      0.97071      .   S
    N333   C193      1.39240      .   S
    N335   C195      1.39242      .   S
    N332   C192      1.39201      .   S
    N334   C194      1.39200      .   S
    H86    C246      1.09861      .   S
    H87    C247      1.09839      .   S
    H84    C244      1.09838      .   S
    H85    C245      1.09838      .   S
    H89    C245      1.09692      .   S
    H88    C244      1.09692      .   S
    H90    C246      1.09685      .   S
    H91    C247      1.09686      .   S
    N328   C184      1.39245      .   S
    N329   C185      1.39246      .   S
    N330   C186      1.39175      .   S
    N331   C187      1.39245      .   S
    C247   C243      1.52563      .   S
    C247   H83       1.09709      .   S
    C245   C241      1.52558      .   S
    C245   H81       1.09746      .   S
    C246   C242      1.52562      .   S
    C246   H82       1.09759      .   S
    C244   C240      1.52556      .   S
    C244   H80       1.09746      .   S
    C240   H76       1.10082      .   S
    C240   O388      1.44654      .   S
    C241   H77       1.10082      .   S
    C241   O389      1.44654      .   S
    C243   H79       1.10071      .   S
    C243   O391      1.44648      .   S
    C242   H78       1.10071      .   S
    C242   O390      1.44649      .   S
    O392   C252      1.27991      .   S
    O395   C255      1.27989      .   S
    O394   C254      1.27986      .   S
    O393   C253      1.27954      .   S
    C193   C185      1.42069      .   S
    C193   C181      1.40293      .   S
    C195   C187      1.42069      .   S
    C195   C183      1.40293      .   S
    C194   C186      1.42026      .   S
    C194   C182      1.40293      .   S
    C192   C184      1.42068      .   S
    C192   C180      1.40293      .   S
    O390   H74       0.97496      .   S
    O391   H75       0.97495      .   S
    O389   H73       0.97492      .   S
    O388   H72       0.97493      .   S
    O403   C255      1.27920      .   S
    O402   C254      1.27917      .   S
    O400   C252      1.27916      .   S
    O401   C253      1.27875      .   S
    C186   C170      1.39459      .   S
    C187   C171      1.39364      .   S
    C185   C169      1.39361      .   S
    C184   C168      1.39363      .   S
    C253   C259      1.49672      .   S
    C254   C256      1.49614  1_655   S
    C252   C258      1.49591      .   S
    C255   C257      1.49601  1_655   S
    H31    C183      1.08847      .   S
    H28    C180      1.08833      .   S
    H29    C181      1.08828      .   S
    H30    C182      1.08827      .   S
    C180   C196      1.39031      .   S
    C183   C199      1.39032      .   S
    C182   C198      1.39043      .   S
    C181   C197      1.39043      .   S
    H106   C278      1.08839      .   S
    H104   C276      1.08867      .   S
    H105   C277      1.08868      .   S
    H107   C279      1.08867      .   S
    C171   H27       1.08684      .   S
    C171   C179      1.40015      .   S
    C170   H26       1.08668      .   S
    C170   C178      1.40017      .   S
    C169   H25       1.08686      .   S
    C169   C177      1.40017      .   S
    C168   H24       1.08684      .   S
    C168   C176      1.40015      .   S
    C259   C279      1.41749      .   S
    C259   C251      1.40016      .   S
    C256   C276      1.41748      .   S
    C256   C248      1.40016      .   S
    C257   C277      1.41749      .   S
    C257   C249      1.40020      .   S
    C258   C278      1.41722      .   S
    C258   C250      1.40016      .   S
    C278   C262      1.39080      .   S
    C276   C260      1.39031      .   S
    C277   C261      1.39029      .   S
    C279   C263      1.39031      .   S
    C199   C179      1.41748      .   S
    C199   H35       1.08866      .   S
    C196   C176      1.41749      .   S
    C196   H32       1.08866      .   S
    C197   C177      1.41745      .   S
    C197   H33       1.08859      .   S
    C198   C178      1.41744      .   S
    C198   H34       1.08859      .   S
    C179   C173      1.49613  1_655   S
    C176   C174      1.49589      .   S
    C177   C175      1.49590      .   S
    C178   C172      1.49614  1_655   S
    H97    C249      1.08995      .   S
    H98    C250      1.08686      .   S
    H99    C251      1.08679      .   S
    H96    C248      1.08681      .   S
    C249   C265      1.39376      .   S
    C248   C264      1.39376      .   S
    C251   C267      1.39378      .   S
    C250   C266      1.39372      .   S
    C261   H101      1.08835      .   S
    C261   C273      1.40294      .   S
    C262   H102      1.08836      .   S
    C262   C274      1.40294      .   S
    C263   H103      1.08209      .   S
    C263   C275      1.40249      .   S
    C260   H100      1.08829      .   S
    C260   C272      1.40292      .   S
    C175   O371      1.27914      .   S
    C175   O363      1.27989      .   S
    C174   O370      1.27920      .   S
    C174   O362      1.27986      .   S
    C173   O369      1.27919      .   S
    C173   O361      1.27986      .   S
    C172   O368      1.27915      .   S
    C172   O360      1.27989      .   S
    H144   O420      0.97494      .   S
    H145   O421      0.97496      .   S
    H146   O422      0.97498      .   S
    H147   O423      0.97495      .   S
    H154   C326      1.09757      .   S
    H155   C327      1.09758      .   S
    H153   C325      1.09745      .   S
    H152   C324      1.09746      .   S
    C267   C275      1.42025      .   S
    C267   N347      1.39236      .   S
    C266   C274      1.42064      .   S
    C266   N346      1.39240      .   S
    C265   C273      1.42063      .   S
    C265   N345      1.39237      .   S
    C264   C272      1.42063      .   S
    C264   N344      1.39236      .   S
    O371   Zn3       2.04108      .   S
    O370   Zn2       2.04105      .   S
    O369   Zn1       2.04106      .   S
    O368   Zn0       2.04108      .   S
    O423   C323      1.44653      .   S
    O420   C320      1.44652      .   S
    O421   C321      1.44654      .   S
    O422   C322      1.44652      .   S
    H151   C323      1.10084      .   S
    H149   C321      1.10082      .   S
    H148   C320      1.10082      .   S
    H150   C322      1.10084      .   S
    C275   N351      1.39283      .   S
    C272   N348      1.39201      .   S
    C273   N349      1.39201      .   S
    C274   N350      1.39198      .   S
    O362   Zn19      1.99374      .   S
    O361   Zn16      1.99381  1_565   S
    O360   Zn17      1.99366      .   S
    O363   Zn18      1.99376  1_565   S
    H93    O381      0.97069      .   S
    H94    O382      0.97052      .   S
    H95    O383      0.97053      .   S
    H92    O380      0.97070      .   S
    C323   C327      1.52557      .   S
    C323   C311      1.50553      .   S
    C320   C324      1.52557      .   S
    C320   C308      1.50553      .   S
    C321   C325      1.52557      .   S
    C321   C309      1.50555      .   S
    C322   C326      1.52559      .   S
    C322   C310      1.50552      .   S
    C324   H160      1.09691      .   S
    C324   H156      1.09840      .   S
    C327   H163      1.09685      .   S
    C327   H159      1.09829      .   S
    C326   H162      1.09687      .   S
    C326   H158      1.09827      .   S
    C325   H161      1.09691      .   S
    C325   H157      1.09840      .   S
    N345   Zn1       2.01682      .   S
    N345   C269      1.35191      .   S
    N344   Zn0       2.01680      .   S
    N344   C268      1.35192      .   S
    N346   Zn2       2.01682      .   S
    N346   C270      1.35192      .   S
    N347   Zn3       2.01683      .   S
    N347   C271      1.35191      .   S
    N349   C269      1.35815      .   S
    N349   Zn5       2.03076      .   S
    N350   C270      1.35815      .   S
    N350   Zn6       2.03079      .   S
    N348   C268      1.35815      .   S
    N348   Zn4       2.03076      .   S
    N351   C271      1.35815      .   S
    N351   Zn7       2.03078      .   S
    O383   Zn19      1.94861      .   S
    O382   Zn18      1.94862      .   S
    O381   Zn17      1.94856      .   S
    O380   Zn16      1.94855      .   S
    Zn1    N359      2.03068  1_455   S
    Zn0    N358      2.03069  1_455   S
    Zn2    N356      2.03034      .   S
    Zn3    N357      2.03033      .   S
    C268   C280      1.50572      .   S
    C269   C281      1.50573      .   S
    C270   C282      1.50465      .   S
    C271   C283      1.50573      .   S
    Zn16   O365      1.94824  1_545   S
    Zn16   O376      1.99264      .   S
    Zn17   O364      1.94852      .   S
    Zn17   O377      1.99263      .   S
    Zn18   O367      1.94824  1_545   S
    Zn18   O378      1.99265      .   S
    Zn19   O366      1.94851      .   S
    Zn19   O379      1.99256      .   S
    C310   N358      1.35807      .   S
    C310   N354      1.35187      .   S
    C309   N357      1.35807      .   S
    C309   N353      1.35187      .   S
    C308   N356      1.35807      .   S
    C308   N352      1.35188      .   S
    C311   N359      1.35806      .   S
    C311   N355      1.35188      .   S
    Zn4    N352      2.01550      .   S
    Zn4    O384      2.04309      .   S
    Zn5    N353      2.01550      .   S
    Zn5    O385      2.04309      .   S
    Zn6    N354      2.01550      .   S
    Zn6    O386      2.04308      .   S
    Zn7    N355      2.01550      .   S
    Zn7    O387      2.04308      .   S
    O367   H59       0.97073      .   S
    O366   H58       0.97075      .   S
    O365   H57       0.97074      .   S
    O364   H56       0.97072      .   S
    N356   C312      1.39200      .   S
    N357   C313      1.39200      .   S
    N359   C315      1.39200      .   S
    N358   C314      1.39198      .   S
    H120   C284      1.09834      .   S
    H123   C287      1.09832      .   S
    H122   C286      1.09834      .   S
    H121   C285      1.09834      .   S
    H124   C284      1.09698      .   S
    H127   C287      1.09697      .   S
    H126   C286      1.09695      .   S
    H125   C285      1.09694      .   S
    N352   C304      1.39227      .   S
    N353   C305      1.39227      .   S
    N354   C306      1.39227      .   S
    N355   C307      1.39226      .   S
    C287   C283      1.52555      .   S
    C287   H119      1.09758      .   S
    C286   C282      1.52503      .   S
    C286   H118      1.09747      .   S
    C284   C280      1.52555      .   S
    C284   H116      1.09758      .   S
    C285   C281      1.52554      .   S
    C285   H117      1.09746      .   S
    C282   H114      1.10184      .   S
    C282   O406      1.44690      .   S
    C283   H115      1.10072      .   S
    C283   O407      1.44640      .   S
    C281   H113      1.10072      .   S
    C281   O405      1.44640      .   S
    C280   H112      1.10071      .   S
    C280   O404      1.44640      .   S
    O379   C215      1.27987      .   S
    O376   C212      1.27986      .   S
    O377   C213      1.27986      .   S
    O378   C214      1.27985      .   S
    C312   C304      1.42064      .   S
    C312   C302      1.40292      .   S
    C313   C305      1.42063      .   S
    C313   C303      1.40292      .   S
    C314   C306      1.42064      .   S
    C314   C300      1.40300  1_655   S
    C315   C307      1.42064      .   S
    C315   C301      1.40298  1_655   S
    O407   H111      0.97487      .   S
    O406   H110      0.97486      .   S
    O405   H109      0.97487      .   S
    O404   H108      0.97413      .   S
    O387   C215      1.27914      .   S
    O384   C212      1.27914      .   S
    O385   C213      1.27914      .   S
    O386   C214      1.27914      .   S
    C305   C289      1.39375      .   S
    C304   C288      1.39375      .   S
    C306   C290      1.39373      .   S
    C307   C291      1.39374      .   S
    C212   C216      1.49537      .   S
    C213   C217      1.49538      .   S
    C214   C218      1.49578      .   S
    C215   C219      1.49579      .   S
    H137   C301      1.08849      .   S
    H138   C302      1.08834      .   S
    H139   C303      1.08834      .   S
    H136   C300      1.08830      .   S
    H70    C236      1.08868  1_655   S
    H68    C238      1.08861      .   S
    H71    C237      1.08869  1_655   S
    H69    C239      1.08861      .   S
    C291   H135      1.08683      .   S
    C290   H134      1.08683      .   S
    C289   H133      1.08682      .   S
    C288   H132      1.08682      .   S
    C217   C237      1.41767      .   S
    C216   C236      1.41768      .   S
    C219   C239      1.41751      .   S
    C218   C238      1.41750      .   S
    O364   Zn0       1.95168      .   S
    O365   Zn1       1.95167      .   S
    O366   Zn2       1.95166      .   S
    O367   Zn3       1.95168      .   S
    O380   Zn4       1.95210      .   S
    O381   Zn5       1.95211      .   S
    O382   Zn6       1.95211      .   S
    O383   Zn7       1.95210      .   S
    O396   Zn8       1.95166      .   S
    O397   Zn9       1.95165      .   S
    O398   Zn10      1.95167      .   S
    O399   Zn11      1.95166      .   S
    O412   Zn12      1.95212      .   S
    O413   Zn13      1.95213      .   S
    O414   Zn14      1.95211      .   S
    O415   Zn15      1.95213      .   S
