# CIF file generated by openbabel 2.4.90, see http://openbabel.sf.net
data_I
_chemical_name_common ''
_cell_length_a 13.728
_cell_length_b 14.03
_cell_length_c 16.134
_cell_angle_alpha 89.995
_cell_angle_beta 89.988
_cell_angle_gamma 90.083
_space_group_name_H-M_alt 'P 1'
_space_group_name_Hall 'P 1'
loop_
    _symmetry_equiv_pos_as_xyz
    x,y,z
loop_
    _atom_site_label
    _atom_site_type_symbol
    _atom_site_fract_x
    _atom_site_fract_y
    _atom_site_fract_z
    _atom_site_occupancy
    V0      V    0.71815   0.26452   0.49811   1.000
    V1      V    0.03184   0.73539   0.99812   1.000
    V2      V    0.53183   0.73540   0.99811   1.000
    V3      V    0.28183   0.76454   0.99840   1.000
    V4      V    0.78181   0.76453   0.99845   1.000
    V5      V    0.46817   0.23539   0.49846   1.000
    V6      V    0.96816   0.23538   0.49846   1.000
    V7      V    0.21816   0.26453   0.49810   1.000
    C8      C    0.13738   0.86914   0.88601   1.000
    C9      C    0.63737   0.86917   0.88603   1.000
    C10     C    0.11253   0.13608   0.61467   1.000
    C11     C    0.61251   0.13611   0.61469   1.000
    C12     C    0.11268   0.13078   0.38601   1.000
    C13     C    0.61265   0.13076   0.38600   1.000
    C14     C    0.13744   0.86384   0.11467   1.000
    C15     C    0.63743   0.86382   0.11468   1.000
    C16     C    0.36300   0.36912   0.61056   1.000
    C17     C    0.86299   0.36912   0.61050   1.000
    C18     C    0.38717   0.63616   0.88188   1.000
    C19     C    0.88716   0.63616   0.88187   1.000
    C20     C    0.38694   0.63083   0.11057   1.000
    C21     C    0.88693   0.63083   0.11057   1.000
    C22     C    0.36287   0.36377   0.38189   1.000
    C23     C    0.86285   0.36375   0.38188   1.000
    O24     O    0.10758   0.30685   0.49707   1.000
    O25     O    0.60756   0.30685   0.49707   1.000
    O26     O    0.19269   0.17082   0.58752   1.000
    O27     O    0.69267   0.17083   0.58753   1.000
    O28     O    0.22206   0.84923   0.91374   1.000
    O29     O    0.72205   0.84923   0.91375   1.000
    O30     O    0.02793   0.15504   0.58630   1.000
    O31     O    0.52791   0.15506   0.58631   1.000
    O32     O    0.05727   0.83360   0.91246   1.000
    O33     O    0.55727   0.83361   0.91247   1.000
    O34     O    0.14243   0.69306   0.99707   1.000
    O35     O    0.64241   0.69306   0.99707   1.000
    O36     O    0.05729   0.82913   0.08752   1.000
    O37     O    0.55728   0.82912   0.08753   1.000
    O38     O    0.02800   0.15071   0.41375   1.000
    O39     O    0.52797   0.15071   0.41370   1.000
    O40     O    0.22205   0.84488   0.08628   1.000
    O41     O    0.72204   0.84487   0.08628   1.000
    O42     O    0.19278   0.16633   0.41244   1.000
    O43     O    0.69275   0.16631   0.41245   1.000
    O44     O    0.39254   0.80683   0.99949   1.000
    O45     O    0.89253   0.80682   0.99950   1.000
    O46     O    0.30705   0.67079   0.90899   1.000
    O47     O    0.80704   0.67079   0.90898   1.000
    O48     O    0.27831   0.34916   0.58274   1.000
    O49     O    0.77830   0.34916   0.58273   1.000
    O50     O    0.47179   0.65520   0.91030   1.000
    O51     O    0.97177   0.65519   0.91031   1.000
    O52     O    0.44307   0.33361   0.58421   1.000
    O53     O    0.94305   0.33361   0.58421   1.000
    O54     O    0.35746   0.19307   0.49951   1.000
    O55     O    0.85745   0.19306   0.49951   1.000
    O56     O    0.44298   0.32916   0.40898   1.000
    O57     O    0.94297   0.32915   0.40899   1.000
    O58     O    0.47163   0.65079   0.08273   1.000
    O59     O    0.97162   0.65079   0.08274   1.000
    O60     O    0.27824   0.34471   0.41032   1.000
    O61     O    0.77823   0.34468   0.41031   1.000
    O62     O    0.30688   0.66634   0.08424   1.000
    O63     O    0.80686   0.66633   0.08424   1.000
loop_
    _geom_bond_atom_site_label_1
    _geom_bond_atom_site_label_2
    _geom_bond_distance
    _geom_bond_site_symmetry_2
    _ccdc_geom_bond_type
    O58    C20       1.27702      .   S
    O58    V2        1.98804  1_554   S
    O59    C21       1.27700      .   S
    O59    V1        1.98812  1_654   S
    O63    C21       1.27995      .   S
    O63    V4        1.98335  1_554   S
    O62    C20       1.28000      .   S
    O62    V3        1.98387  1_554   S
    O40    C14       1.27684      .   S
    O40    V3        1.98920  1_554   S
    O41    C15       1.27688      .   S
    O41    V4        1.98856  1_554   S
    O36    C14       1.28003      .   S
    O36    V1        1.98269  1_554   S
    O37    C15       1.27997      .   S
    O37    V2        1.98283  1_554   S
    C23    O57       1.27996      .   S
    C23    O61       1.27690      .   S
    C22    O56       1.27992      .   S
    C22    O60       1.27685      .   S
    C13    O43       1.28015      .   S
    C13    O39       1.27681      .   S
    C12    O42       1.28002      .   S
    C12    O38       1.27696      .   S
    O56    V5        1.98384      .   S
    O57    V6        1.98378      .   S
    O61    V0        1.98707      .   S
    O60    V7        1.98700      .   S
    O42    V7        1.98205      .   S
    O43    V0        1.98219      .   S
    O39    V5        1.98955      .   S
    O38    V6        1.98908  1_455   S
    O25    V0        1.63103      .   S
    O25    V5        2.15915      .   S
    O24    V7        1.63103      .   S
    O24    V6        2.15953  1_455   S
    V7     O54       2.16058      .   S
    V7     O48       1.98856      .   S
    V7     O26       1.98251      .   S
    V0     O55       2.16067      .   S
    V0     O49       1.98847      .   S
    V0     O27       1.98236      .   S
    V5     O54       1.63090      .   S
    V5     O52       1.98331      .   S
    V5     O31       1.98866      .   S
    V6     O55       1.63090      .   S
    V6     O53       1.98332      .   S
    V6     O30       1.98877  1_655   S
    O49    C17       1.27675      .   S
    O48    C16       1.27705      .   S
    O53    C17       1.27974      .   S
    O52    C16       1.28000      .   S
    O30    C10       1.27681      .   S
    O31    C11       1.27681      .   S
    O26    C10       1.28001      .   S
    O27    C11       1.28000      .   S
    C19    O47       1.27998      .   S
    C19    O51       1.27693      .   S
    C18    O46       1.27996      .   S
    C18    O50       1.27687      .   S
    C8     O32       1.27998      .   S
    C8     O28       1.27697      .   S
    C9     O33       1.27998      .   S
    C9     O29       1.27699      .   S
    O47    V4        1.98365      .   S
    O46    V3        1.98303      .   S
    O50    V2        1.98765      .   S
    O51    V1        1.98785  1_655   S
    O32    V1        1.98201      .   S
    O33    V2        1.98188      .   S
    O28    V3        1.98838      .   S
    O29    V4        1.98892      .   S
    O35    V2        1.63106      .   S
    O35    V4        2.15933      .   S
    O34    V1        1.63105      .   S
    O34    V3        2.15938      .   S
    V2     O44       2.16030      .   S
    V1     O45       2.16052  1_455   S
    V3     O44       1.63088      .   S
    V4     O45       1.63087      .   S
