# CIF file generated by openbabel 2.4.90, see http://openbabel.sf.net
data_I
_chemical_name_common ''
_cell_length_a 13.728
_cell_length_b 14.03
_cell_length_c 16.134
_cell_angle_alpha 89.995
_cell_angle_beta 89.988
_cell_angle_gamma 90.083
_space_group_name_H-M_alt 'P 1'
_space_group_name_Hall 'P 1'
loop_
    _symmetry_equiv_pos_as_xyz
    x,y,z
loop_
    _atom_site_label
    _atom_site_type_symbol
    _atom_site_fract_x
    _atom_site_fract_y
    _atom_site_fract_z
    _atom_site_occupancy
    Zr0     Zr   0.21816   0.26453   0.49810   1.000
    Zr1     Zr   0.71815   0.26452   0.49811   1.000
    Zr2     Zr   0.03184   0.73539   0.99812   1.000
    Zr3     Zr   0.53183   0.73540   0.99811   1.000
    Zr4     Zr   0.28183   0.76454   0.99840   1.000
    Zr5     Zr   0.78181   0.76453   0.99845   1.000
    Zr6     Zr   0.46817   0.23539   0.49846   1.000
    Zr7     Zr   0.96816   0.23538   0.49846   1.000
    Zr8     Zr   0.13738   0.86914   0.88601   1.000
    Zr9     Zr   0.63737   0.86917   0.88603   1.000
    Zr10    Zr   0.11253   0.13608   0.61467   1.000
    Zr11    Zr   0.61251   0.13611   0.61469   1.000
    Zr12    Zr   0.11268   0.13078   0.38601   1.000
    Zr13    Zr   0.61265   0.13076   0.38600   1.000
    Zr14    Zr   0.13744   0.86384   0.11467   1.000
    Zr15    Zr   0.63743   0.86382   0.11468   1.000
    Zr16    Zr   0.36300   0.36912   0.61056   1.000
    Zr17    Zr   0.86299   0.36912   0.61050   1.000
    Zr18    Zr   0.38717   0.63616   0.88188   1.000
    Zr19    Zr   0.88716   0.63616   0.88187   1.000
    Zr20    Zr   0.38694   0.63083   0.11057   1.000
    Zr21    Zr   0.88693   0.63083   0.11057   1.000
    Zr22    Zr   0.36287   0.36377   0.38189   1.000
    Zr23    Zr   0.86285   0.36375   0.38188   1.000
    Zr24    Zr   0.10758   0.30685   0.49707   1.000
    Zr25    Zr   0.60756   0.30685   0.49707   1.000
    Zr26    Zr   0.19269   0.17082   0.58752   1.000
    Zr27    Zr   0.69267   0.17083   0.58753   1.000
    Zr28    Zr   0.22206   0.84923   0.91374   1.000
    Zr29    Zr   0.72205   0.84923   0.91375   1.000
    Zr30    Zr   0.02793   0.15504   0.58630   1.000
    Zr31    Zr   0.52791   0.15506   0.58631   1.000
    Zr32    Zr   0.05727   0.83360   0.91246   1.000
    Zr33    Zr   0.55727   0.83361   0.91247   1.000
    Zr34    Zr   0.14243   0.69306   0.99707   1.000
    Zr35    Zr   0.64241   0.69306   0.99707   1.000
    Zr36    Zr   0.05729   0.82913   0.08752   1.000
    Zr37    Zr   0.55728   0.82912   0.08753   1.000
    Zr38    Zr   0.02800   0.15071   0.41375   1.000
    Zr39    Zr   0.52797   0.15071   0.41370   1.000
    Zr40    Zr   0.22205   0.84488   0.08628   1.000
    Zr41    Zr   0.72204   0.84487   0.08628   1.000
    Zr42    Zr   0.19278   0.16633   0.41244   1.000
    Zr43    Zr   0.69275   0.16631   0.41245   1.000
    Zr44    Zr   0.39254   0.80683   0.99949   1.000
    Zr45    Zr   0.89253   0.80682   0.99950   1.000
    Zr46    Zr   0.30705   0.67079   0.90899   1.000
    Zr47    Zr   0.80704   0.67079   0.90898   1.000
    Zr48    Zr   0.27831   0.34916   0.58274   1.000
    Zr49    Zr   0.77830   0.34916   0.58273   1.000
    Zr50    Zr   0.47179   0.65520   0.91030   1.000
    Zr51    Zr   0.97177   0.65519   0.91031   1.000
    Zr52    Zr   0.44307   0.33361   0.58421   1.000
    Zr53    Zr   0.94305   0.33361   0.58421   1.000
    Zr54    Zr   0.35746   0.19307   0.49951   1.000
    Zr55    Zr   0.85745   0.19306   0.49951   1.000
    Zr56    Zr   0.44298   0.32916   0.40898   1.000
    Zr57    Zr   0.94297   0.32915   0.40899   1.000
    Zr58    Zr   0.47163   0.65079   0.08273   1.000
    Zr59    Zr   0.97162   0.65079   0.08274   1.000
    Zr60    Zr   0.27824   0.34471   0.41032   1.000
    Zr61    Zr   0.77823   0.34468   0.41031   1.000
    Zr62    Zr   0.30688   0.66634   0.08424   1.000
    Zr63    Zr   0.80686   0.66633   0.08424   1.000
    O64     O    0.42929   0.64081   0.09665   1.000
    O65     O    0.50173   0.69309   0.04042   1.000
    O66     O    0.92927   0.64081   0.09665   1.000
    O67     O    0.00173   0.69309   0.04043   1.000
    O68     O    0.84690   0.64858   0.09741   1.000
    O69     O    0.79434   0.71543   0.04134   1.000
    O70     O    0.34691   0.64859   0.09741   1.000
    O71     O    0.29435   0.71544   0.04132   1.000
    O72     O    0.17974   0.85436   0.10047   1.000
    O73     O    0.25194   0.80471   0.04234   1.000
    O74     O    0.67973   0.85434   0.10048   1.000
    O75     O    0.75193   0.80470   0.04237   1.000
    O76     O    0.09736   0.84648   0.10110   1.000
    O77     O    0.04457   0.78226   0.04282   1.000
    O78     O    0.59735   0.84647   0.10111   1.000
    O79     O    0.54455   0.78226   0.04282   1.000
    O80     O    0.90291   0.34645   0.39543   1.000
    O81     O    0.82054   0.35422   0.39610   1.000
    O82     O    0.40292   0.34646   0.39543   1.000
    O83     O    0.32055   0.35424   0.39610   1.000
    O84     O    0.65270   0.14854   0.39922   1.000
    O85     O    0.57031   0.14073   0.39985   1.000
    O86     O    0.15273   0.14856   0.39922   1.000
    O87     O    0.07034   0.14075   0.39988   1.000
    O88     O    0.45558   0.28227   0.45372   1.000
    O89     O    0.95556   0.28227   0.45372   1.000
    O90     O    0.74819   0.30460   0.45421   1.000
    O91     O    0.24820   0.30462   0.45421   1.000
    O92     O    0.20547   0.21543   0.45527   1.000
    O93     O    0.70545   0.21542   0.45528   1.000
    O94     O    0.49807   0.19305   0.45608   1.000
    O95     O    0.99808   0.19305   0.45610   1.000
    O96     O    0.66285   0.28568   0.49759   1.000
    O97     O    0.53787   0.27112   0.49777   1.000
    O98     O    0.16287   0.28569   0.49758   1.000
    O99     O    0.03787   0.27112   0.49777   1.000
    O100    O    0.28781   0.22880   0.49880   1.000
    O101    O    0.24824   0.30684   0.54042   1.000
    O102    O    0.20543   0.21767   0.54281   1.000
    O103    O    0.78780   0.22879   0.49881   1.000
    O104    O    0.74822   0.30684   0.54042   1.000
    O105    O    0.70541   0.21767   0.54282   1.000
    O106    O    0.41282   0.21423   0.49899   1.000
    O107    O    0.45562   0.28450   0.54134   1.000
    O108    O    0.49804   0.19522   0.54238   1.000
    O109    O    0.91281   0.21422   0.49899   1.000
    O110    O    0.95561   0.28449   0.54134   1.000
    O111    O    0.99804   0.19521   0.54238   1.000
    O112    O    0.82064   0.35914   0.59662   1.000
    O113    O    0.32065   0.35914   0.59665   1.000
    O114    O    0.90302   0.35136   0.59736   1.000
    O115    O    0.40303   0.35137   0.59739   1.000
    O116    O    0.07023   0.14556   0.60048   1.000
    O117    O    0.57021   0.14558   0.60050   1.000
    O118    O    0.15261   0.15345   0.60110   1.000
    O119    O    0.65259   0.15347   0.60111   1.000
    O120    O    0.84710   0.65347   0.89543   1.000
    O121    O    0.92946   0.64567   0.89609   1.000
    O122    O    0.34711   0.65347   0.89543   1.000
    O123    O    0.42948   0.64568   0.89609   1.000
    O124    O    0.09733   0.85137   0.89924   1.000
    O125    O    0.17972   0.85918   0.89987   1.000
    O126    O    0.59732   0.85139   0.89925   1.000
    O127    O    0.67971   0.85920   0.89989   1.000
    O128    O    0.79443   0.71766   0.95371   1.000
    O129    O    0.29444   0.71766   0.95369   1.000
    O130    O    0.50181   0.69530   0.95420   1.000
    O131    O    0.00181   0.69529   0.95421   1.000
    O132    O    0.04456   0.78450   0.95529   1.000
    O133    O    0.54455   0.78450   0.95529   1.000
    O134    O    0.25194   0.80688   0.95607   1.000
    O135    O    0.75193   0.80688   0.95610   1.000
    O136    O    0.58712   0.71423   0.99759   1.000
    O137    O    0.71211   0.72879   0.99776   1.000
    O138    O    0.08714   0.71422   0.99760   1.000
    O139    O    0.21213   0.72880   0.99774   1.000
    O140    O    0.46219   0.77111   0.99880   1.000
    O141    O    0.96219   0.77110   0.99881   1.000
    O142    O    0.33718   0.78568   0.99894   1.000
    O143    O    0.83717   0.78567   0.99897   1.000
    N144    N    0.87519   0.50367   0.74542   1.000
    O145    O    0.87067   0.45386   0.69523   1.000
    O146    O    0.87963   0.55290   0.79602   1.000
    N147    N    0.37519   0.50366   0.74544   1.000
    O148    O    0.37964   0.55289   0.79604   1.000
    O149    O    0.37068   0.45385   0.69529   1.000
    N150    N    0.62484   0.00368   0.75114   1.000
    O151    O    0.62950   0.95388   0.80130   1.000
    O152    O    0.62024   0.05289   0.70054   1.000
    N153    N    0.62515   0.99624   0.25114   1.000
    O154    O    0.62050   0.04604   0.30129   1.000
    O155    O    0.62973   0.94704   0.20053   1.000
    N156    N    0.12485   0.00362   0.75109   1.000
    O157    O    0.12951   0.95383   0.80126   1.000
    O158    O    0.12026   0.05283   0.70049   1.000
    N159    N    0.12516   0.99629   0.25111   1.000
    O160    O    0.12052   0.04608   0.30127   1.000
    O161    O    0.12974   0.94708   0.20051   1.000
    N162    N    0.87478   0.49628   0.24546   1.000
    O163    O    0.87928   0.54610   0.19530   1.000
    O164    O    0.87035   0.44704   0.29606   1.000
    N165    N    0.37479   0.49628   0.24546   1.000
    O166    O    0.37929   0.54610   0.19530   1.000
    O167    O    0.37036   0.44704   0.29606   1.000
loop_
    _geom_bond_atom_site_label_1
    _geom_bond_atom_site_label_2
    _geom_bond_distance
    _geom_bond_site_symmetry_2
    _ccdc_geom_bond_type
    Zr58   O64       0.63851      .   S
    Zr20   O64       0.63851      .   S
    Zr58   O65       0.99402      .   S
    Zr3    O65       0.99402  1_556   S
    Zr59   O66       0.63850      .   S
    Zr21   O66       0.63850      .   S
    Zr59   O67       0.99406  1_655   S
    Zr2    O67       0.99406  1_556   S
    Zr63   O68       0.63997      .   S
    Zr21   O68       0.63997      .   S
    Zr63   O69       0.99167      .   S
    Zr5    O69       0.99167  1_556   S
    Zr62   O70       0.64000      .   S
    Zr20   O70       0.64000      .   S
    Zr62   O71       0.99193      .   S
    Zr4    O71       0.99193  1_556   S
    Zr40   O72       0.63842      .   S
    Zr14   O72       0.63842      .   S
    Zr40   O73       0.99460      .   S
    Zr4    O73       0.99460  1_556   S
    Zr41   O74       0.63844      .   S
    Zr15   O74       0.63844      .   S
    Zr41   O75       0.99428      .   S
    Zr5    O75       0.99428  1_556   S
    Zr36   O76       0.64001      .   S
    Zr14   O76       0.64001      .   S
    Zr36   O77       0.99135      .   S
    Zr2    O77       0.99135  1_556   S
    Zr37   O78       0.63998      .   S
    Zr15   O78       0.63998      .   S
    Zr37   O79       0.99142      .   S
    Zr3    O79       0.99142  1_556   S
    Zr23   O80       0.63998      .   S
    Zr57   O80       0.63998      .   S
    Zr23   O81       0.63845      .   S
    Zr61   O81       0.63845      .   S
    Zr22   O82       0.63996      .   S
    Zr56   O82       0.63996      .   S
    Zr22   O83       0.63842      .   S
    Zr60   O83       0.63842      .   S
    Zr13   O84       0.64007      .   S
    Zr43   O84       0.64007      .   S
    Zr13   O85       0.63840      .   S
    Zr39   O85       0.63840      .   S
    Zr12   O86       0.64001      .   S
    Zr42   O86       0.64001      .   S
    Zr12   O87       0.63848      .   S
    Zr38   O87       0.63848      .   S
    Zr56   O88       0.99192      .   S
    Zr6    O88       0.99192      .   S
    Zr57   O89       0.99189      .   S
    Zr7    O89       0.99189      .   S
    Zr61   O90       0.99354      .   S
    Zr1    O90       0.99354      .   S
    Zr60   O91       0.99350      .   S
    Zr0    O91       0.99350      .   S
    Zr42   O92       0.99103      .   S
    Zr0    O92       0.99103      .   S
    Zr43   O93       0.99109      .   S
    Zr1    O93       0.99109      .   S
    Zr39   O94       0.99477      .   S
    Zr6    O94       0.99477      .   S
    Zr38   O95       0.99454  1_455   S
    Zr7    O95       0.99454      .   S
    Zr25   O96       0.81552      .   S
    Zr1    O96       0.81552      .   S
    Zr25   O97       1.07958      .   S
    Zr6    O97       1.07958      .   S
    Zr24   O98       0.81551      .   S
    Zr0    O98       0.81551      .   S
    Zr24   O99       1.07976      .   S
    Zr7    O99       1.07976  1_655   S
    Zr0    O100      1.08029      .   S
    Zr54   O100      1.08029      .   S
    Zr0    O101      0.99428      .   S
    Zr48   O101      0.99428      .   S
    Zr0    O102      0.99126      .   S
    Zr26   O102      0.99126      .   S
    Zr1    O103      1.08034      .   S
    Zr55   O103      1.08034      .   S
    Zr1    O104      0.99424      .   S
    Zr49   O104      0.99424      .   S
    Zr1    O105      0.99118      .   S
    Zr27   O105      0.99118      .   S
    Zr6    O106      0.81545      .   S
    Zr54   O106      0.81545      .   S
    Zr6    O107      0.99165      .   S
    Zr52   O107      0.99165      .   S
    Zr6    O108      0.99433      .   S
    Zr31   O108      0.99433      .   S
    Zr7    O109      0.81545      .   S
    Zr55   O109      0.81545      .   S
    Zr7    O110      0.99166      .   S
    Zr53   O110      0.99166      .   S
    Zr7    O111      0.99439      .   S
    Zr30   O111      0.99439  1_455   S
    Zr49   O112      0.63837      .   S
    Zr17   O112      0.63837      .   S
    Zr48   O113      0.63852      .   S
    Zr16   O113      0.63852      .   S
    Zr53   O114      0.63987      .   S
    Zr17   O114      0.63987      .   S
    Zr52   O115      0.64000      .   S
    Zr16   O115      0.64000      .   S
    Zr30   O116      0.63840      .   S
    Zr10   O116      0.63840      .   S
    Zr31   O117      0.63840      .   S
    Zr11   O117      0.63840      .   S
    Zr26   O118      0.64000      .   S
    Zr10   O118      0.64000      .   S
    Zr27   O119      0.64000      .   S
    Zr11   O119      0.64000      .   S
    Zr19   O120      0.63999      .   S
    Zr47   O120      0.63999      .   S
    Zr19   O121      0.63846      .   S
    Zr51   O121      0.63846      .   S
    Zr18   O122      0.63998      .   S
    Zr46   O122      0.63998      .   S
    Zr18   O123      0.63844      .   S
    Zr50   O123      0.63844      .   S
    Zr8    O124      0.63999      .   S
    Zr32   O124      0.63999      .   S
    Zr8    O125      0.63848      .   S
    Zr28   O125      0.63848      .   S
    Zr9    O126      0.63999      .   S
    Zr33   O126      0.63999      .   S
    Zr9    O127      0.63850      .   S
    Zr29   O127      0.63850      .   S
    Zr47   O128      0.99183      .   S
    Zr5    O128      0.99183      .   S
    Zr46   O129      0.99151      .   S
    Zr4    O129      0.99151      .   S
    Zr50   O130      0.99382      .   S
    Zr3    O130      0.99382      .   S
    Zr51   O131      0.99392  1_655   S
    Zr2    O131      0.99392      .   S
    Zr32   O132      0.99100      .   S
    Zr2    O132      0.99100      .   S
    Zr33   O133      0.99094      .   S
    Zr3    O133      0.99094      .   S
    Zr28   O134      0.99419      .   S
    Zr4    O134      0.99419      .   S
    Zr29   O135      0.99446      .   S
    Zr5    O135      0.99446      .   S
    Zr35   O136      0.81553      .   S
    Zr3    O136      0.81553      .   S
    Zr35   O137      1.07967      .   S
    Zr5    O137      1.07967      .   S
    Zr34   O138      0.81552      .   S
    Zr2    O138      0.81552      .   S
    Zr34   O139      1.07969      .   S
    Zr4    O139      1.07969      .   S
    Zr3    O140      1.08015      .   S
    Zr44   O140      1.08015      .   S
    Zr2    O141      1.08026  1_455   S
    Zr45   O141      1.08026      .   S
    Zr4    O142      0.81544      .   S
    Zr44   O142      0.81544      .   S
    Zr5    O143      0.81543      .   S
    Zr45   O143      0.81543      .   S
    N144   O145      1.07140      .   S
    Zr17   O145      1.81476      .   S
    N144   O146      1.07117      .   S
    Zr19   O146      1.81479      .   S
    N147   O148      1.07113      .   S
    Zr18   O148      1.81473      .   S
    N147   O149      1.07106      .   S
    Zr16   O149      1.81461      .   S
    N150   O151      1.07113  1_545   S
    Zr9    O151      1.81467      .   S
    N150   O152      1.07107      .   S
    Zr11   O152      1.81469      .   S
    N153   O154      1.07111  1_565   S
    Zr13   O154      1.81459      .   S
    N153   O155      1.07114      .   S
    Zr15   O155      1.81478      .   S
    N156   O157      1.07113  1_545   S
    Zr8    O157      1.81469      .   S
    N156   O158      1.07107      .   S
    Zr10   O158      1.81464      .   S
    N159   O160      1.07117  1_565   S
    Zr12   O160      1.81480      .   S
    N159   O161      1.07115      .   S
    Zr14   O161      1.81476      .   S
    N162   O163      1.07108      .   S
    Zr21   O163      1.81449      .   S
    N162   O164      1.07099      .   S
    Zr23   O164      1.81450      .   S
    N165   O166      1.07095      .   S
    Zr20   O166      1.81449      .   S
    N165   O167      1.07104      .   S
    Zr22   O167      1.81459      .   S
