# CIF file generated by openbabel 2.4.90, see http://openbabel.sf.net
data_I
_chemical_name_common ''
_cell_length_a 13.728
_cell_length_b 14.03
_cell_length_c 16.134
_cell_angle_alpha 89.995
_cell_angle_beta 89.988
_cell_angle_gamma 90.083
_space_group_name_H-M_alt 'P 1'
_space_group_name_Hall 'P 1'
loop_
    _symmetry_equiv_pos_as_xyz
    x,y,z
loop_
    _atom_site_label
    _atom_site_type_symbol
    _atom_site_fract_x
    _atom_site_fract_y
    _atom_site_fract_z
    _atom_site_occupancy
    C0      C    0.21816   0.26453   0.49810   1.000
    C1      C    0.71815   0.26452   0.49811   1.000
    C2      C    0.03184   0.73539   0.99812   1.000
    C3      C    0.53183   0.73540   0.99811   1.000
    C4      C    0.28183   0.76454   0.99840   1.000
    C5      C    0.78181   0.76453   0.99845   1.000
    C6      C    0.46817   0.23539   0.49846   1.000
    C7      C    0.96816   0.23538   0.49846   1.000
    C8      C    0.28533   0.96656   0.81508   1.000
    C9      C    0.78533   0.96656   0.81500   1.000
    C10     C    0.27434   0.08229   0.69665   1.000
    C11     C    0.77433   0.08230   0.69665   1.000
    C12     C    0.47534   0.92512   0.80569   1.000
    C13     C    0.97534   0.92498   0.80557   1.000
    C14     C    0.46434   0.04086   0.68726   1.000
    C15     C    0.96435   0.04072   0.68715   1.000
    C16     C    0.46469   0.03336   0.31517   1.000
    C17     C    0.96469   0.03338   0.31517   1.000
    C18     C    0.47562   0.91764   0.19670   1.000
    C19     C    0.97561   0.91765   0.19675   1.000
    C20     C    0.27469   0.07488   0.30550   1.000
    C21     C    0.77467   0.07479   0.30558   1.000
    C22     C    0.28562   0.95915   0.18708   1.000
    C23     C    0.78561   0.95907   0.18715   1.000
    C24     C    0.21497   0.46606   0.68111   1.000
    C25     C    0.71497   0.46611   0.68106   1.000
    C26     C    0.22547   0.58186   0.79952   1.000
    C27     C    0.72547   0.58190   0.79948   1.000
    C28     C    0.02493   0.42549   0.69136   1.000
    C29     C    0.52492   0.42550   0.69136   1.000
    C30     C    0.03543   0.54129   0.80976   1.000
    C31     C    0.53542   0.54131   0.80970   1.000
    C32     C    0.03501   0.53396   0.18107   1.000
    C33     C    0.53497   0.53386   0.18098   1.000
    C34     C    0.02456   0.41813   0.29948   1.000
    C35     C    0.52453   0.41803   0.29940   1.000
    C36     C    0.22505   0.57450   0.19150   1.000
    C37     C    0.72502   0.57439   0.19143   1.000
    C38     C    0.21460   0.45865   0.30990   1.000
    C39     C    0.71457   0.45854   0.30983   1.000
    C40     C    0.13738   0.86914   0.88601   1.000
    C41     C    0.63737   0.86917   0.88603   1.000
    C42     C    0.13096   0.93893   0.81685   1.000
    C43     C    0.63095   0.93899   0.81690   1.000
    C44     C    0.21557   0.98323   0.78649   1.000
    C45     C    0.71556   0.98326   0.78651   1.000
    C46     C    0.20953   0.04734   0.72105   1.000
    C47     C    0.70952   0.04738   0.72107   1.000
    C48     C    0.04016   0.95999   0.78122   1.000
    C49     C    0.54014   0.96010   0.78130   1.000
    C50     C    0.03413   0.02409   0.71570   1.000
    C51     C    0.53410   0.02420   0.71586   1.000
    C52     C    0.11879   0.06802   0.68513   1.000
    C53     C    0.61877   0.06808   0.68518   1.000
    C54     C    0.11253   0.13608   0.61467   1.000
    C55     C    0.61251   0.13611   0.61469   1.000
    C56     C    0.11268   0.13078   0.38601   1.000
    C57     C    0.61265   0.13076   0.38600   1.000
    C58     C    0.11909   0.06098   0.31686   1.000
    C59     C    0.61907   0.06093   0.31689   1.000
    C60     C    0.03447   0.01669   0.28655   1.000
    C61     C    0.53444   0.01666   0.28656   1.000
    C62     C    0.04047   0.95258   0.22110   1.000
    C63     C    0.54045   0.95255   0.22112   1.000
    C64     C    0.20987   0.03989   0.28118   1.000
    C65     C    0.70986   0.03982   0.28124   1.000
    C66     C    0.21588   0.97579   0.21574   1.000
    C67     C    0.71587   0.97572   0.21580   1.000
    C68     C    0.13119   0.93189   0.18514   1.000
    C69     C    0.63118   0.93184   0.18517   1.000
    C70     C    0.13744   0.86384   0.11467   1.000
    C71     C    0.63743   0.86382   0.11468   1.000
    C72     C    0.36300   0.36912   0.61056   1.000
    C73     C    0.86299   0.36912   0.61050   1.000
    C74     C    0.36933   0.43894   0.67970   1.000
    C75     C    0.86932   0.43896   0.67960   1.000
    C76     C    0.28462   0.48300   0.70986   1.000
    C77     C    0.78461   0.48303   0.70983   1.000
    C78     C    0.29039   0.54712   0.77530   1.000
    C79     C    0.79039   0.54716   0.77527   1.000
    C80     C    0.46001   0.46029   0.71553   1.000
    C81     C    0.96000   0.46029   0.71552   1.000
    C82     C    0.46578   0.52443   0.78096   1.000
    C83     C    0.96577   0.52442   0.78090   1.000
    C84     C    0.38101   0.56809   0.81141   1.000
    C85     C    0.88100   0.56810   0.81139   1.000
    C86     C    0.38717   0.63616   0.88188   1.000
    C87     C    0.88716   0.63616   0.88187   1.000
    C88     C    0.38694   0.63083   0.11057   1.000
    C89     C    0.88693   0.63083   0.11057   1.000
    C90     C    0.38062   0.56101   0.17972   1.000
    C91     C    0.88061   0.56101   0.17970   1.000
    C92     C    0.46535   0.51694   0.20980   1.000
    C93     C    0.96535   0.51699   0.20985   1.000
    C94     C    0.45961   0.45279   0.27524   1.000
    C95     C    0.95961   0.45284   0.27529   1.000
    C96     C    0.28996   0.53968   0.21560   1.000
    C97     C    0.78994   0.53962   0.21558   1.000
    C98     C    0.28421   0.47553   0.28100   1.000
    C99     C    0.78419   0.47547   0.28100   1.000
    C100    C    0.36900   0.43184   0.31142   1.000
    C101    C    0.86899   0.43183   0.31142   1.000
    C102    C    0.36287   0.36377   0.38189   1.000
    C103    C    0.86285   0.36375   0.38188   1.000
    C104    C    0.10758   0.30685   0.49707   1.000
    C105    C    0.60756   0.30685   0.49707   1.000
    C106    C    0.19269   0.17082   0.58752   1.000
    C107    C    0.69267   0.17083   0.58753   1.000
    C108    C    0.22206   0.84923   0.91374   1.000
    C109    C    0.72205   0.84923   0.91375   1.000
    C110    C    0.02793   0.15504   0.58630   1.000
    C111    C    0.52791   0.15506   0.58631   1.000
    C112    C    0.05727   0.83360   0.91246   1.000
    C113    C    0.55727   0.83361   0.91247   1.000
    C114    C    0.14243   0.69306   0.99707   1.000
    C115    C    0.64241   0.69306   0.99707   1.000
    C116    C    0.05729   0.82913   0.08752   1.000
    C117    C    0.55728   0.82912   0.08753   1.000
    C118    C    0.02800   0.15071   0.41375   1.000
    C119    C    0.52797   0.15071   0.41370   1.000
    C120    C    0.22205   0.84488   0.08628   1.000
    C121    C    0.72204   0.84487   0.08628   1.000
    C122    C    0.19278   0.16633   0.41244   1.000
    C123    C    0.69275   0.16631   0.41245   1.000
    C124    C    0.39254   0.80683   0.99949   1.000
    C125    C    0.89253   0.80682   0.99950   1.000
    C126    C    0.30705   0.67079   0.90899   1.000
    C127    C    0.80704   0.67079   0.90898   1.000
    C128    C    0.27831   0.34916   0.58274   1.000
    C129    C    0.77830   0.34916   0.58273   1.000
    C130    C    0.47179   0.65520   0.91030   1.000
    C131    C    0.97177   0.65519   0.91031   1.000
    C132    C    0.44307   0.33361   0.58421   1.000
    C133    C    0.94305   0.33361   0.58421   1.000
    C134    C    0.35746   0.19307   0.49951   1.000
    C135    C    0.85745   0.19306   0.49951   1.000
    C136    C    0.44298   0.32916   0.40898   1.000
    C137    C    0.94297   0.32915   0.40899   1.000
    C138    C    0.47163   0.65079   0.08273   1.000
    C139    C    0.97162   0.65079   0.08274   1.000
    C140    C    0.27824   0.34471   0.41032   1.000
    C141    C    0.77823   0.34468   0.41031   1.000
    C142    C    0.30688   0.66634   0.08424   1.000
    C143    C    0.80686   0.66633   0.08424   1.000
    O144    O    0.42929   0.64081   0.09665   1.000
    O145    O    0.50173   0.69309   0.04042   1.000
    O146    O    0.92927   0.64081   0.09665   1.000
    O147    O    0.00173   0.69309   0.04043   1.000
    O148    O    0.84690   0.64858   0.09741   1.000
    O149    O    0.79434   0.71543   0.04134   1.000
    O150    O    0.34691   0.64859   0.09741   1.000
    O151    O    0.29435   0.71544   0.04132   1.000
    O152    O    0.17974   0.85436   0.10047   1.000
    O153    O    0.25194   0.80471   0.04234   1.000
    O154    O    0.67973   0.85434   0.10048   1.000
    O155    O    0.75193   0.80470   0.04237   1.000
    O156    O    0.09736   0.84648   0.10110   1.000
    O157    O    0.04457   0.78226   0.04282   1.000
    O158    O    0.59735   0.84647   0.10111   1.000
    O159    O    0.54455   0.78226   0.04282   1.000
    O160    O    0.88377   0.59592   0.14513   1.000
    O161    O    0.38378   0.59592   0.14514   1.000
    O162    O    0.13432   0.89786   0.14991   1.000
    O163    O    0.63431   0.89783   0.14993   1.000
    O164    O    0.92298   0.53900   0.19478   1.000
    O165    O    0.83527   0.55031   0.19764   1.000
    O166    O    0.42299   0.53897   0.19476   1.000
    O167    O    0.33529   0.55034   0.19766   1.000
    O168    O    0.50016   0.52540   0.19539   1.000
    O169    O    0.00018   0.52547   0.19546   1.000
    O170    O    0.17353   0.95384   0.20044   1.000
    O171    O    0.08583   0.94224   0.20312   1.000
    O172    O    0.67352   0.95378   0.20048   1.000
    O173    O    0.58582   0.94220   0.20315   1.000
    O174    O    0.25075   0.96747   0.20141   1.000
    O175    O    0.75074   0.96739   0.20148   1.000
    O176    O    0.75748   0.55701   0.20350   1.000
    O177    O    0.25750   0.55709   0.20355   1.000
    O178    O    0.50804   0.93510   0.20891   1.000
    O179    O    0.00804   0.93512   0.20892   1.000
    O180    O    0.46248   0.48486   0.24252   1.000
    O181    O    0.96248   0.48491   0.24257   1.000
    O182    O    0.78706   0.50754   0.24829   1.000
    O183    O    0.28709   0.50760   0.24830   1.000
    O184    O    0.21288   0.00784   0.24846   1.000
    O185    O    0.71286   0.00777   0.24852   1.000
    O186    O    0.03747   0.98464   0.25383   1.000
    O187    O    0.53745   0.98461   0.25384   1.000
    O188    O    0.49207   0.43541   0.28732   1.000
    O189    O    0.41431   0.44232   0.29333   1.000
    O190    O    0.99208   0.43548   0.28738   1.000
    O191    O    0.91430   0.44234   0.29335   1.000
    O192    O    0.74938   0.46700   0.29542   1.000
    O193    O    0.82659   0.45365   0.29621   1.000
    O194    O    0.24941   0.46709   0.29545   1.000
    O195    O    0.32661   0.45369   0.29621   1.000
    O196    O    0.24228   0.05739   0.29334   1.000
    O197    O    0.16448   0.05044   0.29902   1.000
    O198    O    0.74227   0.05731   0.29341   1.000
    O199    O    0.66446   0.05038   0.29907   1.000
    O200    O    0.99958   0.02503   0.30086   1.000
    O201    O    0.07678   0.03883   0.30170   1.000
    O202    O    0.49956   0.02501   0.30086   1.000
    O203    O    0.57675   0.03880   0.30173   1.000
    O204    O    0.36594   0.39781   0.34665   1.000
    O205    O    0.86592   0.39779   0.34665   1.000
    O206    O    0.11588   0.09588   0.35144   1.000
    O207    O    0.61586   0.09585   0.35145   1.000
    O208    O    0.90291   0.34645   0.39543   1.000
    O209    O    0.82054   0.35422   0.39610   1.000
    O210    O    0.40292   0.34646   0.39543   1.000
    O211    O    0.32055   0.35424   0.39610   1.000
    O212    O    0.65270   0.14854   0.39922   1.000
    O213    O    0.57031   0.14073   0.39985   1.000
    O214    O    0.15273   0.14856   0.39922   1.000
    O215    O    0.07034   0.14075   0.39988   1.000
    O216    O    0.45558   0.28227   0.45372   1.000
    O217    O    0.95556   0.28227   0.45372   1.000
    O218    O    0.74819   0.30460   0.45421   1.000
    O219    O    0.24820   0.30462   0.45421   1.000
    O220    O    0.20547   0.21543   0.45527   1.000
    O221    O    0.70545   0.21542   0.45528   1.000
    O222    O    0.49807   0.19305   0.45608   1.000
    O223    O    0.99808   0.19305   0.45610   1.000
    O224    O    0.66285   0.28568   0.49759   1.000
    O225    O    0.53787   0.27112   0.49777   1.000
    O226    O    0.16287   0.28569   0.49758   1.000
    O227    O    0.03787   0.27112   0.49777   1.000
    O228    O    0.28781   0.22880   0.49880   1.000
    O229    O    0.24824   0.30684   0.54042   1.000
    O230    O    0.20543   0.21767   0.54281   1.000
    O231    O    0.78780   0.22879   0.49881   1.000
    O232    O    0.74822   0.30684   0.54042   1.000
    O233    O    0.70541   0.21767   0.54282   1.000
    O234    O    0.41282   0.21423   0.49899   1.000
    O235    O    0.45562   0.28450   0.54134   1.000
    O236    O    0.49804   0.19522   0.54238   1.000
    O237    O    0.91281   0.21422   0.49899   1.000
    O238    O    0.95561   0.28449   0.54134   1.000
    O239    O    0.99804   0.19521   0.54238   1.000
    O240    O    0.82064   0.35914   0.59662   1.000
    O241    O    0.32065   0.35914   0.59665   1.000
    O242    O    0.90302   0.35136   0.59736   1.000
    O243    O    0.40303   0.35137   0.59739   1.000
    O244    O    0.07023   0.14556   0.60048   1.000
    O245    O    0.57021   0.14558   0.60050   1.000
    O246    O    0.15261   0.15345   0.60110   1.000
    O247    O    0.65259   0.15347   0.60111   1.000
    O248    O    0.86616   0.40404   0.64505   1.000
    O249    O    0.36616   0.40403   0.64513   1.000
    O250    O    0.11566   0.10205   0.64990   1.000
    O251    O    0.61564   0.10210   0.64994   1.000
    O252    O    0.82697   0.46099   0.69472   1.000
    O253    O    0.91466   0.44962   0.69756   1.000
    O254    O    0.32697   0.46097   0.69478   1.000
    O255    O    0.41467   0.44962   0.69761   1.000
    O256    O    0.74979   0.47457   0.69544   1.000
    O257    O    0.24979   0.47453   0.69549   1.000
    O258    O    0.07646   0.04606   0.70042   1.000
    O259    O    0.16416   0.05768   0.70309   1.000
    O260    O    0.57643   0.04614   0.70052   1.000
    O261    O    0.66415   0.05773   0.70313   1.000
    O262    O    0.99924   0.03241   0.70142   1.000
    O263    O    0.49922   0.03253   0.70156   1.000
    O264    O    0.99247   0.44289   0.70344   1.000
    O265    O    0.49246   0.44290   0.70344   1.000
    O266    O    0.74193   0.06484   0.70886   1.000
    O267    O    0.24194   0.06482   0.70885   1.000
    O268    O    0.78750   0.51509   0.74255   1.000
    O269    O    0.28750   0.51506   0.74258   1.000
    O270    O    0.96289   0.49235   0.74821   1.000
    O271    O    0.46290   0.49236   0.74824   1.000
    O272    O    0.03714   0.99204   0.74846   1.000
    O273    O    0.53712   0.99215   0.74858   1.000
    O274    O    0.21255   0.01529   0.75377   1.000
    O275    O    0.71254   0.01532   0.75379   1.000
    O276    O    0.75793   0.56453   0.78738   1.000
    O277    O    0.83569   0.55763   0.79333   1.000
    O278    O    0.25793   0.56449   0.78741   1.000
    O279    O    0.33570   0.55761   0.79335   1.000
    O280    O    0.00060   0.53285   0.79533   1.000
    O281    O    0.92339   0.54626   0.79614   1.000
    O282    O    0.50060   0.53287   0.79533   1.000
    O283    O    0.42340   0.54626   0.79618   1.000
    O284    O    0.00775   0.94248   0.79340   1.000
    O285    O    0.08556   0.94946   0.79904   1.000
    O286    O    0.50774   0.94261   0.79349   1.000
    O287    O    0.58554   0.94954   0.79910   1.000
    O288    O    0.25045   0.97489   0.80078   1.000
    O289    O    0.17327   0.96108   0.80167   1.000
    O290    O    0.75044   0.97491   0.80075   1.000
    O291    O    0.67325   0.96113   0.80171   1.000
    O292    O    0.88408   0.60213   0.84663   1.000
    O293    O    0.38409   0.60213   0.84664   1.000
    O294    O    0.13417   0.90404   0.85143   1.000
    O295    O    0.63416   0.90408   0.85146   1.000
    O296    O    0.84710   0.65347   0.89543   1.000
    O297    O    0.92946   0.64567   0.89609   1.000
    O298    O    0.34711   0.65347   0.89543   1.000
    O299    O    0.42948   0.64568   0.89609   1.000
    O300    O    0.09733   0.85137   0.89924   1.000
    O301    O    0.17972   0.85918   0.89987   1.000
    O302    O    0.59732   0.85139   0.89925   1.000
    O303    O    0.67971   0.85920   0.89989   1.000
    O304    O    0.79443   0.71766   0.95371   1.000
    O305    O    0.29444   0.71766   0.95369   1.000
    O306    O    0.50181   0.69530   0.95420   1.000
    O307    O    0.00181   0.69529   0.95421   1.000
    O308    O    0.04456   0.78450   0.95529   1.000
    O309    O    0.54455   0.78450   0.95529   1.000
    O310    O    0.25194   0.80688   0.95607   1.000
    O311    O    0.75193   0.80688   0.95610   1.000
    O312    O    0.58712   0.71423   0.99759   1.000
    O313    O    0.71211   0.72879   0.99776   1.000
    O314    O    0.08714   0.71422   0.99760   1.000
    O315    O    0.21213   0.72880   0.99774   1.000
    O316    O    0.46219   0.77111   0.99880   1.000
    O317    O    0.96219   0.77110   0.99881   1.000
    O318    O    0.33718   0.78568   0.99894   1.000
    O319    O    0.83717   0.78567   0.99897   1.000
loop_
    _geom_bond_atom_site_label_1
    _geom_bond_atom_site_label_2
    _geom_bond_distance
    _geom_bond_site_symmetry_2
    _ccdc_geom_bond_type
    C138   O144      0.63851      .   S
    C88    O144      0.63851      .   S
    C138   O145      0.99402      .   S
    C3     O145      0.99402  1_556   S
    C139   O146      0.63850      .   S
    C89    O146      0.63850      .   S
    C139   O147      0.99406  1_655   S
    C2     O147      0.99406  1_556   S
    C143   O148      0.63997      .   S
    C89    O148      0.63997      .   S
    C143   O149      0.99167      .   S
    C5     O149      0.99167  1_556   S
    C142   O150      0.64000      .   S
    C88    O150      0.64000      .   S
    C142   O151      0.99193      .   S
    C4     O151      0.99193  1_556   S
    C120   O152      0.63842      .   S
    C70    O152      0.63842      .   S
    C120   O153      0.99460      .   S
    C4     O153      0.99460  1_556   S
    C121   O154      0.63844      .   S
    C71    O154      0.63844      .   S
    C121   O155      0.99428      .   S
    C5     O155      0.99428  1_556   S
    C116   O156      0.64001      .   S
    C70    O156      0.64001      .   S
    C116   O157      0.99135      .   S
    C2     O157      0.99135  1_556   S
    C117   O158      0.63998      .   S
    C71    O158      0.63998      .   S
    C117   O159      0.99142      .   S
    C3     O159      0.99142  1_556   S
    C89    O160      0.74343      .   S
    C91    O160      0.74343      .   S
    C88    O161      0.74355      .   S
    C90    O161      0.74355      .   S
    C70    O162      0.74361      .   S
    C68    O162      0.74361      .   S
    C71    O163      0.74364      .   S
    C69    O163      0.74364      .   S
    C91    O164      0.70238      .   S
    C93    O164      0.70238      .   S
    C91    O165      0.70237      .   S
    C97    O165      0.70237      .   S
    C90    O166      0.70230      .   S
    C92    O166      0.70230      .   S
    C90    O167      0.70222      .   S
    C96    O167      0.70222      .   S
    C33    O168      0.54438      .   S
    C92    O168      0.54438      .   S
    C32    O169      0.54452      .   S
    C93    O169      0.54452  1_655   S
    C68    O170      0.70229      .   S
    C66    O170      0.70229      .   S
    C68    O171      0.70230      .   S
    C62    O171      0.70230      .   S
    C69    O172      0.70230      .   S
    C67    O172      0.70230      .   S
    C69    O173      0.70232      .   S
    C63    O173      0.70232      .   S
    C22    O174      0.54437      .   S
    C66    O174      0.54437      .   S
    C23    O175      0.54439      .   S
    C67    O175      0.54439      .   S
    C37    O176      0.54440      .   S
    C97    O176      0.54440      .   S
    C36    O177      0.54434      .   S
    C96    O177      0.54434      .   S
    C18    O178      0.54455      .   S
    C63    O178      0.54455      .   S
    C19    O179      0.54454  1_655   S
    C62    O179      0.54454      .   S
    C92    O180      0.69471      .   S
    C94    O180      0.69471      .   S
    C93    O181      0.69473      .   S
    C95    O181      0.69473      .   S
    C97    O182      0.69461      .   S
    C99    O182      0.69461      .   S
    C96    O183      0.69447      .   S
    C98    O183      0.69447      .   S
    C66    O184      0.69475  1_565   S
    C64    O184      0.69475      .   S
    C67    O185      0.69475  1_565   S
    C65    O185      0.69475      .   S
    C62    O186      0.69484      .   S
    C60    O186      0.69484  1_545   S
    C63    O187      0.69477      .   S
    C61    O187      0.69477  1_545   S
    C94    O188      0.54440      .   S
    C35    O188      0.54440      .   S
    C94    O189      0.70227      .   S
    C100   O189      0.70227      .   S
    C95    O190      0.54454      .   S
    C34    O190      0.54454  1_455   S
    C95    O191      0.70225      .   S
    C101   O191      0.70225      .   S
    C99    O192      0.54438      .   S
    C39    O192      0.54438      .   S
    C99    O193      0.70234      .   S
    C101   O193      0.70234      .   S
    C98    O194      0.54451      .   S
    C38    O194      0.54451      .   S
    C98    O195      0.70245      .   S
    C100   O195      0.70245      .   S
    C64    O196      0.54440      .   S
    C20    O196      0.54440      .   S
    C64    O197      0.70231      .   S
    C58    O197      0.70231      .   S
    C65    O198      0.54440      .   S
    C21    O198      0.54440      .   S
    C65    O199      0.70230      .   S
    C59    O199      0.70230      .   S
    C60    O200      0.54454  1_455   S
    C17    O200      0.54454      .   S
    C60    O201      0.70231      .   S
    C58    O201      0.70231      .   S
    C61    O202      0.54440      .   S
    C16    O202      0.54440      .   S
    C61    O203      0.70233      .   S
    C59    O203      0.70233      .   S
    C100   O204      0.74355      .   S
    C102   O204      0.74355      .   S
    C101   O205      0.74351      .   S
    C103   O205      0.74351      .   S
    C58    O206      0.74365      .   S
    C56    O206      0.74365      .   S
    C59    O207      0.74350      .   S
    C57    O207      0.74350      .   S
    C103   O208      0.63998      .   S
    C137   O208      0.63998      .   S
    C103   O209      0.63845      .   S
    C141   O209      0.63845      .   S
    C102   O210      0.63996      .   S
    C136   O210      0.63996      .   S
    C102   O211      0.63842      .   S
    C140   O211      0.63842      .   S
    C57    O212      0.64007      .   S
    C123   O212      0.64007      .   S
    C57    O213      0.63840      .   S
    C119   O213      0.63840      .   S
    C56    O214      0.64001      .   S
    C122   O214      0.64001      .   S
    C56    O215      0.63848      .   S
    C118   O215      0.63848      .   S
    C136   O216      0.99192      .   S
    C6     O216      0.99192      .   S
    C137   O217      0.99189      .   S
    C7     O217      0.99189      .   S
    C141   O218      0.99354      .   S
    C1     O218      0.99354      .   S
    C140   O219      0.99350      .   S
    C0     O219      0.99350      .   S
    C122   O220      0.99103      .   S
    C0     O220      0.99103      .   S
    C123   O221      0.99109      .   S
    C1     O221      0.99109      .   S
    C119   O222      0.99477      .   S
    C6     O222      0.99477      .   S
    C118   O223      0.99454  1_455   S
    C7     O223      0.99454      .   S
    C105   O224      0.81552      .   S
    C1     O224      0.81552      .   S
    C105   O225      1.07958      .   S
    C6     O225      1.07958      .   S
    C104   O226      0.81551      .   S
    C0     O226      0.81551      .   S
    C104   O227      1.07976      .   S
    C7     O227      1.07976  1_655   S
    C0     O228      1.08029      .   S
    C134   O228      1.08029      .   S
    C0     O229      0.99428      .   S
    C128   O229      0.99428      .   S
    C0     O230      0.99126      .   S
    C106   O230      0.99126      .   S
    C1     O231      1.08034      .   S
    C135   O231      1.08034      .   S
    C1     O232      0.99424      .   S
    C129   O232      0.99424      .   S
    C1     O233      0.99118      .   S
    C107   O233      0.99118      .   S
    C6     O234      0.81545      .   S
    C134   O234      0.81545      .   S
    C6     O235      0.99165      .   S
    C132   O235      0.99165      .   S
    C6     O236      0.99433      .   S
    C111   O236      0.99433      .   S
    C7     O237      0.81545      .   S
    C135   O237      0.81545      .   S
    C7     O238      0.99166      .   S
    C133   O238      0.99166      .   S
    C7     O239      0.99439      .   S
    C110   O239      0.99439  1_455   S
    C129   O240      0.63837      .   S
    C73    O240      0.63837      .   S
    C128   O241      0.63852      .   S
    C72    O241      0.63852      .   S
    C133   O242      0.63987      .   S
    C73    O242      0.63987      .   S
    C132   O243      0.64000      .   S
    C72    O243      0.64000      .   S
    C110   O244      0.63840      .   S
    C54    O244      0.63840      .   S
    C111   O245      0.63840      .   S
    C55    O245      0.63840      .   S
    C106   O246      0.64000      .   S
    C54    O246      0.64000      .   S
    C107   O247      0.64000      .   S
    C55    O247      0.64000      .   S
    C73    O248      0.74337      .   S
    C75    O248      0.74337      .   S
    C72    O249      0.74357      .   S
    C74    O249      0.74357      .   S
    C54    O250      0.74358      .   S
    C52    O250      0.74358      .   S
    C55    O251      0.74362      .   S
    C53    O251      0.74362      .   S
    C75    O252      0.70256      .   S
    C77    O252      0.70256      .   S
    C75    O253      0.70255      .   S
    C81    O253      0.70255      .   S
    C74    O254      0.70233      .   S
    C76    O254      0.70233      .   S
    C74    O255      0.70230      .   S
    C80    O255      0.70230      .   S
    C25    O256      0.54438      .   S
    C77    O256      0.54438      .   S
    C24    O257      0.54436      .   S
    C76    O257      0.54436      .   S
    C52    O258      0.70209      .   S
    C50    O258      0.70209      .   S
    C52    O259      0.70233      .   S
    C46    O259      0.70233      .   S
    C53    O260      0.70229      .   S
    C51    O260      0.70229      .   S
    C53    O261      0.70231      .   S
    C47    O261      0.70231      .   S
    C15    O262      0.54425      .   S
    C50    O262      0.54425  1_455   S
    C14    O263      0.54437      .   S
    C51    O263      0.54437      .   S
    C28    O264      0.54453  1_455   S
    C81    O264      0.54453      .   S
    C29    O265      0.54439      .   S
    C80    O265      0.54439      .   S
    C11    O266      0.54440      .   S
    C47    O266      0.54440      .   S
    C10    O267      0.54442      .   S
    C46    O267      0.54442      .   S
    C77    O268      0.69472      .   S
    C79    O268      0.69472      .   S
    C76    O269      0.69472      .   S
    C78    O269      0.69472      .   S
    C81    O270      0.69435      .   S
    C83    O270      0.69435      .   S
    C80    O271      0.69467      .   S
    C82    O271      0.69467      .   S
    C50    O272      0.69524  1_545   S
    C48    O272      0.69524      .   S
    C51    O273      0.69474  1_545   S
    C49    O273      0.69474      .   S
    C46    O274      0.69476      .   S
    C44    O274      0.69476  1_565   S
    C47    O275      0.69477      .   S
    C45    O275      0.69477  1_565   S
    C79    O276      0.54442      .   S
    C27    O276      0.54442      .   S
    C79    O277      0.70226      .   S
    C85    O277      0.70226      .   S
    C78    O278      0.54442      .   S
    C26    O278      0.54442      .   S
    C78    O279      0.70229      .   S
    C84    O279      0.70229      .   S
    C83    O280      0.54471  1_655   S
    C30    O280      0.54471      .   S
    C83    O281      0.70247      .   S
    C85    O281      0.70247      .   S
    C82    O282      0.54417      .   S
    C31    O282      0.54417      .   S
    C82    O283      0.70232      .   S
    C84    O283      0.70232      .   S
    C48    O284      0.54453      .   S
    C13    O284      0.54453  1_655   S
    C48    O285      0.70228      .   S
    C42    O285      0.70228      .   S
    C49    O286      0.54441      .   S
    C12    O286      0.54441      .   S
    C49    O287      0.70231      .   S
    C43    O287      0.70231      .   S
    C44    O288      0.54439      .   S
    C8     O288      0.54439      .   S
    C44    O289      0.70231      .   S
    C42    O289      0.70231      .   S
    C45    O290      0.54414      .   S
    C9     O290      0.54414      .   S
    C45    O291      0.70232      .   S
    C43    O291      0.70232      .   S
    C85    O292      0.74362      .   S
    C87    O292      0.74362      .   S
    C84    O293      0.74360      .   S
    C86    O293      0.74360      .   S
    C42    O294      0.74358      .   S
    C40    O294      0.74358      .   S
    C43    O295      0.74355      .   S
    C41    O295      0.74355      .   S
    C87    O296      0.63999      .   S
    C127   O296      0.63999      .   S
    C87    O297      0.63846      .   S
    C131   O297      0.63846      .   S
    C86    O298      0.63998      .   S
    C126   O298      0.63998      .   S
    C86    O299      0.63844      .   S
    C130   O299      0.63844      .   S
    C40    O300      0.63999      .   S
    C112   O300      0.63999      .   S
    C40    O301      0.63848      .   S
    C108   O301      0.63848      .   S
    C41    O302      0.63999      .   S
    C113   O302      0.63999      .   S
    C41    O303      0.63850      .   S
    C109   O303      0.63850      .   S
    C127   O304      0.99183      .   S
    C5     O304      0.99183      .   S
    C126   O305      0.99151      .   S
    C4     O305      0.99151      .   S
    C130   O306      0.99382      .   S
    C3     O306      0.99382      .   S
    C131   O307      0.99392  1_655   S
    C2     O307      0.99392      .   S
    C112   O308      0.99100      .   S
    C2     O308      0.99100      .   S
    C113   O309      0.99094      .   S
    C3     O309      0.99094      .   S
    C108   O310      0.99419      .   S
    C4     O310      0.99419      .   S
    C109   O311      0.99446      .   S
    C5     O311      0.99446      .   S
    C115   O312      0.81553      .   S
    C3     O312      0.81553      .   S
    C115   O313      1.07967      .   S
    C5     O313      1.07967      .   S
    C114   O314      0.81552      .   S
    C2     O314      0.81552      .   S
    C114   O315      1.07969      .   S
    C4     O315      1.07969      .   S
    C3     O316      1.08015      .   S
    C124   O316      1.08015      .   S
    C2     O317      1.08026  1_455   S
    C125   O317      1.08026      .   S
    C4     O318      0.81544      .   S
    C124   O318      0.81544      .   S
    C5     O319      0.81543      .   S
    C125   O319      0.81543      .   S
