# CIF file generated by openbabel 2.4.90, see http://openbabel.sf.net
data_I
_chemical_name_common ''
_cell_length_a 13.79
_cell_length_b 14.367
_cell_length_c 21.456
_cell_angle_alpha 90.118
_cell_angle_beta 90.021
_cell_angle_gamma 89.909
_space_group_name_H-M_alt 'P 1'
_space_group_name_Hall 'P 1'
loop_
    _symmetry_equiv_pos_as_xyz
    x,y,z
loop_
    _atom_site_label
    _atom_site_type_symbol
    _atom_site_fract_x
    _atom_site_fract_y
    _atom_site_fract_z
    _atom_site_occupancy
    Zn0     Zn   0.47076   0.59784   0.55753   1.000
    Zn1     Zn   0.47085   0.90229   0.05843   1.000
    Zn2     Zn   0.52924   0.40218   0.44245   1.000
    Zn3     Zn   0.97077   0.90221   0.44246   1.000
    Zn4     Zn   0.02917   0.40223   0.05843   1.000
    Zn5     Zn   0.02924   0.09781   0.55752   1.000
    Zn6     Zn   0.97083   0.59778   0.94155   1.000
    Zn7     Zn   0.52916   0.09772   0.94156   1.000
