# CIF file generated by openbabel 2.4.90, see http://openbabel.sf.net
data_I
_chemical_name_common ''
_cell_length_a 13.79
_cell_length_b 14.367
_cell_length_c 21.456
_cell_angle_alpha 90.118
_cell_angle_beta 90.021
_cell_angle_gamma 89.909
_space_group_name_H-M_alt 'P 1'
_space_group_name_Hall 'P 1'
loop_
    _symmetry_equiv_pos_as_xyz
    x,y,z
loop_
    _atom_site_label
    _atom_site_type_symbol
    _atom_site_fract_x
    _atom_site_fract_y
    _atom_site_fract_z
    _atom_site_occupancy
    C0      C    0.52916   0.09772   0.94156   1.000
    C1      C    0.47076   0.59784   0.55753   1.000
    C2      C    0.47085   0.90229   0.05843   1.000
    C3      C    0.52924   0.40218   0.44245   1.000
    C4      C    0.97077   0.90221   0.44246   1.000
    C5      C    0.02917   0.40223   0.05843   1.000
    C6      C    0.02924   0.09781   0.55752   1.000
    C7      C    0.97083   0.59778   0.94155   1.000
    C8      C    0.47078   0.38028   0.81930   1.000
    C9      C    0.54541   0.21403   0.74217   1.000
    C10     C    0.47919   0.41601   0.70617   1.000
    C11     C    0.55963   0.25411   0.62699   1.000
    C12     C    0.36039   0.02917   0.86334   1.000
    C13     C    0.18042   0.02695   0.86154   1.000
    C14     C    0.18558   0.17608   0.03671   1.000
    C15     C    0.36644   0.17243   0.03065   1.000
    C16     C    0.03602   0.14468   0.99597   1.000
    C17     C    0.01936   0.02496   0.87665   1.000
    C18     C    0.71161   0.15111   0.02179   1.000
    C19     C    0.89115   0.14308   0.01579   1.000
    C20     C    0.85663   0.00339   0.83789   1.000
    C21     C    0.67753   0.01993   0.85182   1.000
    C22     C    0.52979   0.88100   0.68149   1.000
    C23     C    0.45368   0.71414   0.75680   1.000
    C24     C    0.52092   0.91514   0.79443   1.000
    C25     C    0.43939   0.75382   0.87296   1.000
    C26     C    0.63944   0.53020   0.63610   1.000
    C27     C    0.81943   0.52835   0.63835   1.000
    C28     C    0.81448   0.67611   0.46308   1.000
    C29     C    0.63364   0.67220   0.46800   1.000
    C30     C    0.96388   0.64540   0.50423   1.000
    C31     C    0.98074   0.52513   0.62298   1.000
    C32     C    0.28781   0.65068   0.47777   1.000
    C33     C    0.10837   0.64285   0.48400   1.000
    C34     C    0.14373   0.50402   0.66178   1.000
    C35     C    0.32276   0.52018   0.64757   1.000
    C36     C    0.52922   0.61974   0.18062   1.000
    C37     C    0.45460   0.78599   0.25781   1.000
    C38     C    0.52081   0.58401   0.29381   1.000
    C39     C    0.44038   0.74591   0.37299   1.000
    C40     C    0.63961   0.97084   0.13665   1.000
    C41     C    0.81959   0.97306   0.13844   1.000
    C42     C    0.81442   0.82393   0.96328   1.000
    C43     C    0.63357   0.82759   0.96933   1.000
    C44     C    0.96398   0.85534   0.00401   1.000
    C45     C    0.98065   0.97505   0.12334   1.000
    C46     C    0.28839   0.84891   0.97819   1.000
    C47     C    0.10885   0.85694   0.98420   1.000
    C48     C    0.14338   0.99663   0.16209   1.000
    C49     C    0.32248   0.98008   0.14816   1.000
    C50     C    0.47023   0.11902   0.31849   1.000
    C51     C    0.54632   0.28588   0.24310   1.000
    C52     C    0.47910   0.08487   0.20556   1.000
    C53     C    0.56061   0.24620   0.12702   1.000
    C54     C    0.36056   0.46981   0.36387   1.000
    C55     C    0.18057   0.47166   0.36164   1.000
    C56     C    0.18553   0.32391   0.53690   1.000
    C57     C    0.36636   0.32782   0.53129   1.000
    C58     C    0.03612   0.35461   0.49576   1.000
    C59     C    0.01926   0.47489   0.37701   1.000
    C60     C    0.71219   0.34933   0.52220   1.000
    C61     C    0.89164   0.35717   0.51598   1.000
    C62     C    0.85627   0.49601   0.33821   1.000
    C63     C    0.67724   0.47985   0.35242   1.000
    C64     C    0.00000   0.61879   0.31857   1.000
    C65     C    0.95389   0.78608   0.24318   1.000
    C66     C    0.00000   0.58472   0.20562   1.000
    C67     C    0.93959   0.74645   0.12700   1.000
    C68     C    0.13910   0.96948   0.36378   1.000
    C69     C    0.31909   0.97144   0.36157   1.000
    C70     C    0.31488   0.82405   0.53697   1.000
    C71     C    0.13401   0.82792   0.53136   1.000
    C72     C    0.46411   0.85463   0.49570   1.000
    C73     C    0.48039   0.97512   0.37708   1.000
    C74     C    0.78809   0.84947   0.52222   1.000
    C75     C    0.60861   0.85735   0.51601   1.000
    C76     C    0.64329   0.99621   0.33825   1.000
    C77     C    0.82239   0.98000   0.35243   1.000
    C78     C    0.97051   0.11968   0.18058   1.000
    C79     C    0.04557   0.28560   0.25773   1.000
    C80     C    0.97899   0.08396   0.29376   1.000
    C81     C    0.05968   0.24556   0.37292   1.000
    C82     C    0.86027   0.47084   0.13657   1.000
    C83     C    0.68029   0.47294   0.13837   1.000
    C84     C    0.68584   0.32404   0.96312   1.000
    C85     C    0.86668   0.32775   0.96919   1.000
    C86     C    0.53618   0.35535   0.00386   1.000
    C87     C    0.51925   0.47459   0.12339   1.000
    C88     C    0.21170   0.34897   0.97800   1.000
    C89     C    0.39121   0.35696   0.98408   1.000
    C90     C    0.35652   0.49589   0.16225   1.000
    C91     C    0.17746   0.47940   0.14833   1.000
    C92     C    0.97059   0.38123   0.68142   1.000
    C93     C    0.04611   0.21394   0.75680   1.000
    C94     C    0.97934   0.41530   0.79437   1.000
    C95     C    0.06041   0.25357   0.87299   1.000
    C96     C    0.86091   0.03054   0.63621   1.000
    C97     C    0.68092   0.02858   0.63842   1.000
    C98     C    0.68512   0.17596   0.46302   1.000
    C99     C    0.86599   0.17209   0.46862   1.000
    C100    C    0.53589   0.14538   0.50424   1.000
    C101    C    0.51962   0.02490   0.62291   1.000
    C102    C    0.21191   0.15055   0.47776   1.000
    C103    C    0.39139   0.14267   0.48398   1.000
    C104    C    0.35672   0.00382   0.66174   1.000
    C105    C    0.17762   0.02003   0.64756   1.000
    C106    C    0.00000   0.88034   0.81941   1.000
    C107    C    0.95443   0.71442   0.74226   1.000
    C108    C    0.00000   0.91605   0.70622   1.000
    C109    C    0.94032   0.75446   0.62706   1.000
    C110    C    0.13974   0.52918   0.86341   1.000
    C111    C    0.31972   0.52708   0.86161   1.000
    C112    C    0.31416   0.67598   0.03687   1.000
    C113    C    0.13332   0.67226   0.03079   1.000
    C114    C    0.46382   0.64467   0.99613   1.000
    C115    C    0.48075   0.52543   0.87659   1.000
    C116    C    0.78831   0.65105   0.02189   1.000
    C117    C    0.60879   0.64306   0.01590   1.000
    C118    C    0.64348   0.50413   0.83773   1.000
    C119    C    0.82254   0.52062   0.85160   1.000
    C120    C    0.50809   0.24903   0.86509   1.000
    C121    C    0.49695   0.30995   0.80945   1.000
    C122    C    0.51870   0.28475   0.75034   1.000
    C123    C    0.50799   0.34603   0.69770   1.000
    C124    C    0.53040   0.32267   0.63831   1.000
    C125    C    0.51632   0.38672   0.58485   1.000
    C126    C    0.31852   0.06039   0.90105   1.000
    C127    C    0.21799   0.05975   0.90049   1.000
    C128    C    0.16639   0.10101   0.95008   1.000
    C129    C    0.22200   0.14235   0.99761   1.000
    C130    C    0.32244   0.14003   0.99400   1.000
    C131    C    0.06130   0.10478   0.95574   1.000
    C132    C    0.99561   0.06528   0.91714   1.000
    C133    C    0.74735   0.11969   0.98168   1.000
    C134    C    0.84757   0.11481   0.97776   1.000
    C135    C    0.89090   0.07290   0.92522   1.000
    C136    C    0.82772   0.03764   0.87934   1.000
    C137    C    0.72805   0.04632   0.88663   1.000
    C138    C    0.49199   0.75096   0.63418   1.000
    C139    C    0.50315   0.81071   0.69054   1.000
    C140    C    0.48087   0.78473   0.74934   1.000
    C141    C    0.49167   0.84536   0.80245   1.000
    C142    C    0.46903   0.82209   0.86175   1.000
    C143    C    0.48361   0.88640   0.91521   1.000
    C144    C    0.68136   0.56118   0.59840   1.000
    C145    C    0.78189   0.56075   0.59929   1.000
    C146    C    0.83354   0.60167   0.54977   1.000
    C147    C    0.77800   0.64263   0.50210   1.000
    C148    C    0.67757   0.64012   0.50487   1.000
    C149    C    0.93862   0.60542   0.54420   1.000
    C150    C    0.00436   0.56565   0.58270   1.000
    C151    C    0.25230   0.61949   0.51790   1.000
    C152    C    0.15211   0.61477   0.52198   1.000
    C153    C    0.10905   0.57317   0.57455   1.000
    C154    C    0.17244   0.53804   0.62032   1.000
    C155    C    0.27206   0.54652   0.61287   1.000
    C156    C    0.49192   0.75099   0.13490   1.000
    C157    C    0.50305   0.69007   0.19053   1.000
    C158    C    0.48131   0.71527   0.24964   1.000
    C159    C    0.49201   0.65399   0.30228   1.000
    C160    C    0.46961   0.67735   0.36168   1.000
    C161    C    0.48369   0.61329   0.41514   1.000
    C162    C    0.68148   0.93962   0.09894   1.000
    C163    C    0.78202   0.94026   0.09950   1.000
    C164    C    0.83361   0.89901   0.04990   1.000
    C165    C    0.77801   0.85767   0.00237   1.000
    C166    C    0.67757   0.85999   0.00539   1.000
    C167    C    0.93870   0.89524   0.04424   1.000
    C168    C    0.00439   0.93473   0.08285   1.000
    C169    C    0.25265   0.88032   0.01830   1.000
    C170    C    0.15243   0.88521   0.02223   1.000
    C171    C    0.10911   0.92711   0.07477   1.000
    C172    C    0.17229   0.96238   0.12060   1.000
    C173    C    0.27195   0.95370   0.11335   1.000
    C174    C    0.50802   0.24906   0.36581   1.000
    C175    C    0.49686   0.18931   0.30940   1.000
    C176    C    0.51914   0.21529   0.25064   1.000
    C177    C    0.50833   0.15466   0.19753   1.000
    C178    C    0.53098   0.17792   0.13823   1.000
    C179    C    0.51640   0.11362   0.08477   1.000
    C180    C    0.31864   0.43883   0.40151   1.000
    C181    C    0.21812   0.43927   0.40070   1.000
    C182    C    0.16646   0.39835   0.45020   1.000
    C183    C    0.22200   0.35739   0.49788   1.000
    C184    C    0.32244   0.35989   0.49511   1.000
    C185    C    0.06138   0.39459   0.45571   1.000
    C186    C    0.99564   0.43437   0.41720   1.000
    C187    C    0.74770   0.38053   0.48208   1.000
    C188    C    0.84790   0.38524   0.47801   1.000
    C189    C    0.89096   0.42685   0.42544   1.000
    C190    C    0.82756   0.46198   0.37967   1.000
    C191    C    0.72794   0.45350   0.38711   1.000
    C192    C    0.99193   0.74906   0.36583   1.000
    C193    C    0.00000   0.68922   0.30949   1.000
    C194    C    0.98087   0.71533   0.25060   1.000
    C195    C    0.99160   0.65465   0.19756   1.000
    C196    C    0.96907   0.67803   0.13820   1.000
    C197    C    0.98357   0.61360   0.08482   1.000
    C198    C    0.18118   0.93863   0.40146   1.000
    C199    C    0.28170   0.93913   0.40066   1.000
    C200    C    0.33356   0.89835   0.45020   1.000
    C201    C    0.27823   0.85745   0.49792   1.000
    C202    C    0.17778   0.85991   0.49515   1.000
    C203    C    0.43866   0.89466   0.45572   1.000
    C204    C    0.50422   0.93452   0.41732   1.000
    C205    C    0.75243   0.88067   0.48209   1.000
    C206    C    0.65221   0.88541   0.47803   1.000
    C207    C    0.60894   0.92702   0.42547   1.000
    C208    C    0.67216   0.96216   0.37970   1.000
    C209    C    0.77183   0.95366   0.38713   1.000
    C210    C    0.00806   0.25070   0.13480   1.000
    C211    C    0.99684   0.18988   0.19046   1.000
    C212    C    0.01871   0.21501   0.24957   1.000
    C213    C    0.00791   0.15381   0.30220   1.000
    C214    C    0.03036   0.17711   0.36162   1.000
    C215    C    0.01620   0.11318   0.41511   1.000
    C216    C    0.81848   0.43962   0.09885   1.000
    C217    C    0.71794   0.44020   0.09942   1.000
    C218    C    0.66646   0.39896   0.04980   1.000
    C219    C    0.72217   0.35773   0.00224   1.000
    C220    C    0.82260   0.36010   0.00526   1.000
    C221    C    0.56137   0.39513   0.04414   1.000
    C222    C    0.49558   0.43444   0.08283   1.000
    C223    C    0.24740   0.38022   0.01825   1.000
    C224    C    0.34761   0.38510   0.02210   1.000
    C225    C    0.39088   0.42680   0.07477   1.000
    C226    C    0.32766   0.46184   0.12074   1.000
    C227    C    0.22801   0.45319   0.11345   1.000
    C228    C    0.00807   0.25096   0.63416   1.000
    C229    C    0.99702   0.31080   0.69000   1.000
    C230    C    0.01913   0.28468   0.74932   1.000
    C231    C    0.00840   0.34537   0.80242   1.000
    C232    C    0.03093   0.32199   0.86174   1.000
    C233    C    0.01643   0.38641   0.91516   1.000
    C234    C    0.81883   0.06139   0.59853   1.000
    C235    C    0.71830   0.06089   0.59933   1.000
    C236    C    0.66645   0.10167   0.54976   1.000
    C237    C    0.72177   0.14256   0.50206   1.000
    C238    C    0.82222   0.14010   0.50483   1.000
    C239    C    0.56134   0.10536   0.54426   1.000
    C240    C    0.49579   0.06550   0.58260   1.000
    C241    C    0.24758   0.11934   0.51789   1.000
    C242    C    0.34779   0.11461   0.52190   1.000
    C243    C    0.39106   0.07300   0.57452   1.000
    C244    C    0.32784   0.03787   0.62029   1.000
    C245    C    0.22818   0.04636   0.61286   1.000
    C246    C    0.99194   0.74932   0.86518   1.000
    C247    C    0.00000   0.81013   0.80952   1.000
    C248    C    0.98130   0.78500   0.75042   1.000
    C249    C    0.99210   0.84621   0.69776   1.000
    C250    C    0.96964   0.82291   0.63836   1.000
    C251    C    0.98381   0.88683   0.58487   1.000
    C252    C    0.18152   0.56039   0.90113   1.000
    C253    C    0.28206   0.55982   0.90057   1.000
    C254    C    0.33355   0.60105   0.95018   1.000
    C255    C    0.27783   0.64228   0.99770   1.000
    C256    C    0.17740   0.63992   0.99472   1.000
    C257    C    0.43863   0.60489   0.95584   1.000
    C258    C    0.50443   0.56558   0.91715   1.000
    C259    C    0.75261   0.61979   0.98173   1.000
    C260    C    0.65239   0.61492   0.97782   1.000
    C261    C    0.60913   0.57322   0.92520   1.000
    C262    C    0.67234   0.53818   0.87925   1.000
    C263    C    0.77199   0.54683   0.88653   1.000
    C264    C    0.37118   0.09913   0.94753   1.000
    C265    C    0.68724   0.08668   0.93708   1.000
    C266    C    0.62877   0.59939   0.55180   1.000
    C267    C    0.31264   0.58658   0.56230   1.000
    C268    C    0.62882   0.90089   0.05246   1.000
    C269    C    0.31277   0.91334   0.06290   1.000
    C270    C    0.37124   0.40062   0.44817   1.000
    C271    C    0.68737   0.41344   0.43760   1.000
    C272    C    0.12878   0.90050   0.44815   1.000
    C273    C    0.81260   0.91361   0.43762   1.000
    C274    C    0.87124   0.40098   0.05235   1.000
    C275    C    0.18724   0.41302   0.06294   1.000
    C276    C    0.87123   0.09952   0.55183   1.000
    C277    C    0.18741   0.08641   0.56237   1.000
    C278    C    0.12877   0.59904   0.94763   1.000
    C279    C    0.81276   0.58699   0.93700   1.000
    C280    C    0.52541   0.16170   0.85596   1.000
    C281    C    0.50003   0.28607   0.91820   1.000
    C282    C    0.47561   0.46484   0.59470   1.000
    C283    C    0.54580   0.35578   0.53211   1.000
    C284    C    0.47452   0.66357   0.64250   1.000
    C285    C    0.50012   0.78908   0.58154   1.000
    C286    C    0.52442   0.96422   0.90491   1.000
    C287    C    0.45448   0.85613   0.96809   1.000
    C288    C    0.47459   0.83832   0.14402   1.000
    C289    C    0.49998   0.71395   0.08178   1.000
    C290    C    0.52439   0.53518   0.40521   1.000
    C291    C    0.45421   0.64424   0.46788   1.000
    C292    C    0.52549   0.33645   0.35740   1.000
    C293    C    0.49988   0.21094   0.41844   1.000
    C294    C    0.47559   0.03580   0.09507   1.000
    C295    C    0.54553   0.14389   0.03189   1.000
    C296    C    0.97453   0.83650   0.35748   1.000
    C297    C    0.00000   0.71095   0.41848   1.000
    C298    C    0.02430   0.53565   0.09521   1.000
    C299    C    0.95446   0.64391   0.03191   1.000
    C300    C    0.02550   0.33796   0.14393   1.000
    C301    C    0.00000   0.21363   0.08170   1.000
    C302    C    0.97545   0.03520   0.40522   1.000
    C303    C    0.04566   0.14413   0.46785   1.000
    C304    C    0.02547   0.16352   0.64250   1.000
    C305    C    0.99991   0.28906   0.58150   1.000
    C306    C    0.97571   0.46437   0.90477   1.000
    C307    C    0.04554   0.35611   0.96807   1.000
    C308    C    0.97450   0.66206   0.85606   1.000
    C309    C    0.00000   0.78638   0.91828   1.000
    C310    C    0.02455   0.96482   0.59476   1.000
    C311    C    0.95435   0.85589   0.53214   1.000
    O312    O    0.77239   0.35891   0.00375   1.000
    O313    O    0.69431   0.37835   0.02602   1.000
    O314    O    0.70401   0.34089   0.98268   1.000
    O315    O    0.72779   0.85883   0.00388   1.000
    O316    O    0.80581   0.87834   0.02614   1.000
    O317    O    0.79622   0.84080   0.98283   1.000
    O318    O    0.54878   0.37524   0.02400   1.000
    O319    O    0.95134   0.87529   0.02413   1.000
    O320    O    0.84692   0.38054   0.02881   1.000
    O321    O    0.84464   0.34392   0.98723   1.000
    O322    O    0.65319   0.88044   0.02893   1.000
    O323    O    0.65557   0.84379   0.98736   1.000
    O324    O    0.86936   0.12894   0.99678   1.000
    O325    O    0.63059   0.62899   0.99686   1.000
    O326    O    0.29750   0.38266   0.02018   1.000
    O327    O    0.21732   0.39662   0.04060   1.000
    O328    O    0.22955   0.36460   0.99813   1.000
    O329    O    0.20254   0.88276   0.02027   1.000
    O330    O    0.28271   0.89683   0.04060   1.000
    O331    O    0.27052   0.86461   0.99825   1.000
    O332    O    0.72948   0.13540   0.00174   1.000
    O333    O    0.77046   0.63542   0.00181   1.000
    O334    O    0.36924   0.40595   0.04844   1.000
    O335    O    0.36941   0.37103   0.00309   1.000
    O336    O    0.13077   0.90616   0.04850   1.000
    O337    O    0.13064   0.87107   0.00321   1.000
    O338    O    0.34444   0.15623   0.01233   1.000
    O339    O    0.15536   0.65609   0.01276   1.000
    O340    O    0.53096   0.12875   0.05833   1.000
    O341    O    0.53734   0.12081   0.98673   1.000
    O342    O    0.96902   0.62875   0.05837   1.000
    O343    O    0.96265   0.62084   0.98673   1.000
    O344    O    0.20379   0.15921   0.01716   1.000
    O345    O    0.29600   0.65913   0.01729   1.000
    O346    O    0.61392   0.39705   0.04697   1.000
    O347    O    0.52848   0.41478   0.06348   1.000
    O348    O    0.88615   0.89712   0.04707   1.000
    O349    O    0.97154   0.91499   0.06355   1.000
    O350    O    0.69220   0.41958   0.07461   1.000
    O351    O    0.80781   0.91964   0.07470   1.000
    O352    O    0.95020   0.40160   0.05539   1.000
    O353    O    0.84486   0.42030   0.07560   1.000
    O354    O    0.54983   0.90159   0.05545   1.000
    O355    O    0.65515   0.92025   0.07570   1.000
    O356    O    0.39181   0.90781   0.06067   1.000
    O357    O    0.47322   0.96905   0.07675   1.000
    O358    O    0.47272   0.87031   0.10123   1.000
    O359    O    0.46266   0.87921   0.01326   1.000
    O360    O    0.10821   0.40763   0.06069   1.000
    O361    O    0.02673   0.46894   0.07682   1.000
    O362    O    0.02734   0.37009   0.10118   1.000
    O363    O    0.03736   0.37917   0.01325   1.000
    O364    O    0.29236   0.93352   0.08813   1.000
    O365    O    0.20763   0.43310   0.08820   1.000
    O366    O    0.05675   0.93092   0.07881   1.000
    O367    O    0.14070   0.94474   0.09769   1.000
    O368    O    0.44323   0.43062   0.07880   1.000
    O369    O    0.35927   0.44432   0.09776   1.000
    O370    O    0.00403   0.23217   0.10825   1.000
    O371    O    0.49595   0.73247   0.10834   1.000
    O372    O    0.50742   0.45452   0.10311   1.000
    O373    O    0.99252   0.95489   0.10310   1.000
    O374    O    0.49599   0.07471   0.08992   1.000
    O375    O    0.52369   0.14577   0.11150   1.000
    O376    O    0.00393   0.57462   0.09002   1.000
    O377    O    0.97632   0.64581   0.11151   1.000
    O378    O    0.76821   0.43991   0.09914   1.000
    O379    O    0.83937   0.45523   0.11771   1.000
    O380    O    0.73175   0.93994   0.09922   1.000
    O381    O    0.66055   0.95523   0.11780   1.000
    O382    O    0.69911   0.45657   0.11890   1.000
    O383    O    0.80080   0.95666   0.11897   1.000
    O384    O    0.22212   0.95804   0.11698   1.000
    O385    O    0.29721   0.96689   0.13076   1.000
    O386    O    0.27784   0.45751   0.11710   1.000
    O387    O    0.20274   0.46630   0.13089   1.000
    O388    O    0.15783   0.97950   0.14135   1.000
    O389    O    0.34209   0.47886   0.14150   1.000
    O390    O    0.95433   0.71224   0.13260   1.000
    O391    O    0.54579   0.21206   0.13262   1.000
    O392    O    0.01678   0.29433   0.13937   1.000
    O393    O    0.00245   0.22029   0.16263   1.000
    O394    O    0.48325   0.79465   0.13946   1.000
    O395    O    0.49748   0.72053   0.16272   1.000
    O396    O    0.98033   0.66634   0.16788   1.000
    O397    O    0.51965   0.16629   0.16788   1.000
    O398    O    0.98368   0.15478   0.18552   1.000
    O399    O    0.51614   0.65490   0.18558   1.000
    O400    O    0.00777   0.20245   0.22001   1.000
    O401    O    0.49218   0.70267   0.22009   1.000
    O402    O    0.49372   0.11976   0.20155   1.000
    O403    O    0.51373   0.18497   0.22408   1.000
    O404    O    0.99580   0.61968   0.20159   1.000
    O405    O    0.98623   0.68499   0.22408   1.000
    O406    O    0.53273   0.25058   0.24687   1.000
    O407    O    0.96738   0.75070   0.24689   1.000
    O408    O    0.03214   0.25031   0.25365   1.000
    O409    O    0.01331   0.18441   0.27589   1.000
    O410    O    0.46795   0.75063   0.25373   1.000
    O411    O    0.48666   0.68463   0.27596   1.000
    O412    O    0.99043   0.70228   0.28005   1.000
    O413    O    0.50800   0.20230   0.28002   1.000
    O414    O    0.99345   0.11889   0.29798   1.000
    O415    O    0.50641   0.61900   0.29805   1.000
    O416    O    0.01913   0.16546   0.33191   1.000
    O417    O    0.48081   0.66567   0.33198   1.000
    O418    O    0.48354   0.15416   0.31395   1.000
    O419    O    0.50244   0.21918   0.33761   1.000
    O420    O    0.00000   0.65400   0.31403   1.000
    O421    O    0.99597   0.71914   0.33766   1.000
    O422    O    0.84192   0.47899   0.35894   1.000
    O423    O    0.65772   0.97919   0.35898   1.000
    O424    O    0.70259   0.46667   0.36977   1.000
    O425    O    0.79711   0.96683   0.36978   1.000
    O426    O    0.51675   0.29275   0.36161   1.000
    O427    O    0.52737   0.36931   0.39992   1.000
    O428    O    0.98323   0.79278   0.36166   1.000
    O429    O    0.97265   0.86935   0.39997   1.000
    O430    O    0.30039   0.95528   0.38112   1.000
    O431    O    0.04502   0.21134   0.36727   1.000
    O432    O    0.02328   0.14515   0.38837   1.000
    O433    O    0.19934   0.45547   0.38117   1.000
    O434    O    0.45499   0.71163   0.36734   1.000
    O435    O    0.47665   0.64532   0.38841   1.000
    O436    O    0.16014   0.95406   0.38262   1.000
    O437    O    0.33960   0.45432   0.38269   1.000
    O438    O    0.50395   0.23000   0.39213   1.000
    O439    O    0.99597   0.73000   0.39216   1.000
    O440    O    0.00745   0.45463   0.39711   1.000
    O441    O    0.49230   0.95482   0.39720   1.000
    O442    O    0.77775   0.45774   0.38339   1.000
    O443    O    0.85926   0.44442   0.40256   1.000
    O444    O    0.72199   0.95791   0.38342   1.000
    O445    O    0.64055   0.94459   0.40259   1.000
    O446    O    0.70765   0.43347   0.41236   1.000
    O447    O    0.79221   0.93364   0.41238   1.000
    O448    O    0.23144   0.93888   0.40106   1.000
    O449    O    0.30763   0.91874   0.42543   1.000
    O450    O    0.26838   0.43905   0.40111   1.000
    O451    O    0.19229   0.41881   0.42545   1.000
    O452    O    0.15498   0.91956   0.42481   1.000
    O453    O    0.34494   0.41973   0.42484   1.000
    O454    O    0.50404   0.57424   0.41018   1.000
    O455    O    0.52682   0.46868   0.42383   1.000
    O456    O    0.99582   0.07419   0.41017   1.000
    O457    O    0.97311   0.96870   0.42384   1.000
    O458    O    0.03093   0.12866   0.44148   1.000
    O459    O    0.46895   0.62877   0.44151   1.000
    O460    O    0.94330   0.43061   0.42132   1.000
    O461    O    0.02851   0.41448   0.43646   1.000
    O462    O    0.55658   0.93077   0.42140   1.000
    O463    O    0.47144   0.91459   0.43652   1.000
    O464    O    0.86943   0.40605   0.45173   1.000
    O465    O    0.63058   0.90622   0.45175   1.000
    O466    O    0.60831   0.40781   0.44003   1.000
    O467    O    0.71753   0.39698   0.45984   1.000
    O468    O    0.89168   0.90791   0.44004   1.000
    O469    O    0.78251   0.89714   0.45986   1.000
    O470    O    0.45024   0.40140   0.44531   1.000
    O471    O    0.53752   0.37898   0.48728   1.000
    O472    O    0.04977   0.90135   0.44531   1.000
    O473    O    0.96256   0.87905   0.48730   1.000
    O474    O    0.15328   0.88020   0.47165   1.000
    O475    O    0.34684   0.38026   0.47164   1.000
    O476    O    0.38611   0.89651   0.45296   1.000
    O477    O    0.30589   0.87790   0.47406   1.000
    O478    O    0.11392   0.39647   0.45296   1.000
    O479    O    0.19423   0.37787   0.47404   1.000
    O480    O    0.04875   0.37460   0.47574   1.000
    O481    O    0.45139   0.87465   0.47571   1.000
    O482    O    0.70345   0.15926   0.48254   1.000
    O483    O    0.79624   0.65937   0.48259   1.000
    O484    O    0.03745   0.12097   0.51269   1.000
    O485    O    0.46248   0.62104   0.51271   1.000
    O486    O    0.65560   0.65616   0.48644   1.000
    O487    O    0.84411   0.15610   0.48673   1.000
    O488    O    0.22974   0.13494   0.49783   1.000
    O489    O    0.27005   0.63509   0.49784   1.000
    O490    O    0.79780   0.38289   0.48005   1.000
    O491    O    0.86977   0.37120   0.49699   1.000
    O492    O    0.70232   0.88304   0.48006   1.000
    O493    O    0.63041   0.87138   0.49702   1.000
    O494    O    0.72995   0.36493   0.50214   1.000
    O495    O    0.77026   0.86507   0.50216   1.000
    O496    O    0.36959   0.12864   0.50294   1.000
    O497    O    0.13024   0.62881   0.50299   1.000
    O498    O    0.27222   0.35864   0.49650   1.000
    O499    O    0.34440   0.34386   0.51320   1.000
    O500    O    0.22800   0.85868   0.49654   1.000
    O501    O    0.15590   0.84392   0.51326   1.000
    O502    O    0.20376   0.34065   0.51739   1.000
    O503    O    0.29655   0.84075   0.51745   1.000
    O504    O    0.77200   0.14133   0.50345   1.000
    O505    O    0.69411   0.12212   0.52591   1.000
    O506    O    0.72778   0.64138   0.50349   1.000
    O507    O    0.80577   0.62215   0.52594   1.000
    O508    O    0.95125   0.62541   0.52422   1.000
    O509    O    0.54862   0.12537   0.52425   1.000
    O510    O    0.84673   0.11981   0.52833   1.000
    O511    O    0.65317   0.61976   0.52833   1.000
    O512    O    0.29768   0.11698   0.51989   1.000
    O513    O    0.21749   0.10288   0.54013   1.000
    O514    O    0.20220   0.61713   0.51994   1.000
    O515    O    0.28247   0.60303   0.54010   1.000
    O516    O    0.36943   0.09380   0.54821   1.000
    O517    O    0.13058   0.59397   0.54827   1.000
    O518    O    0.53106   0.37125   0.55848   1.000
    O519    O    0.96908   0.87136   0.55851   1.000
    O520    O    0.88608   0.60355   0.54699   1.000
    O521    O    0.97149   0.58554   0.56345   1.000
    O522    O    0.61389   0.10351   0.54701   1.000
    O523    O    0.52856   0.08543   0.56343   1.000
    O524    O    0.69237   0.08128   0.57455   1.000
    O525    O    0.80771   0.58121   0.57453   1.000
    O526    O    0.54976   0.59861   0.55467   1.000
    O527    O    0.65506   0.58029   0.57510   1.000
    O528    O    0.95023   0.09867   0.55468   1.000
    O529    O    0.84503   0.08045   0.57518   1.000
    O530    O    0.10832   0.09211   0.55995   1.000
    O531    O    0.02690   0.03131   0.57614   1.000
    O532    O    0.02736   0.13066   0.60001   1.000
    O533    O    0.39170   0.59221   0.55992   1.000
    O534    O    0.47318   0.53134   0.57612   1.000
    O535    O    0.47264   0.63070   0.60002   1.000
    O536    O    0.29235   0.56655   0.58759   1.000
    O537    O    0.20779   0.06639   0.58762   1.000
    O538    O    0.44342   0.06925   0.57856   1.000
    O539    O    0.35945   0.05543   0.59741   1.000
    O540    O    0.05670   0.56941   0.57863   1.000
    O541    O    0.14074   0.55560   0.59744   1.000
    O542    O    0.00399   0.27001   0.60783   1.000
    O543    O    0.49606   0.77002   0.60786   1.000
    O544    O    0.50770   0.04520   0.60276   1.000
    O545    O    0.99255   0.54539   0.60284   1.000
    O546    O    0.49596   0.42578   0.58978   1.000
    O547    O    0.52336   0.35470   0.61158   1.000
    O548    O    0.00418   0.92583   0.58982   1.000
    O549    O    0.97672   0.85487   0.61162   1.000
    O550    O    0.73162   0.56096   0.59885   1.000
    O551    O    0.66040   0.54569   0.61725   1.000
    O552    O    0.76857   0.06114   0.59893   1.000
    O553    O    0.83987   0.04596   0.61737   1.000
    O554    O    0.80066   0.54455   0.61882   1.000
    O555    O    0.69961   0.04473   0.61888   1.000
    O556    O    0.27801   0.04212   0.61658   1.000
    O557    O    0.20290   0.03320   0.63021   1.000
    O558    O    0.22225   0.54228   0.61660   1.000
    O559    O    0.29741   0.53335   0.63022   1.000
    O560    O    0.34228   0.02084   0.64102   1.000
    O561    O    0.15809   0.52103   0.64105   1.000
    O562    O    0.54501   0.28839   0.63265   1.000
    O563    O    0.95498   0.78868   0.63271   1.000
    O564    O    0.01677   0.20724   0.63833   1.000
    O565    O    0.00254   0.28088   0.66208   1.000
    O566    O    0.48325   0.70727   0.63834   1.000
    O567    O    0.49757   0.78083   0.66236   1.000
    O568    O    0.51919   0.33435   0.66801   1.000
    O569    O    0.98087   0.83456   0.66806   1.000
    O570    O    0.98380   0.34601   0.68571   1.000
    O571    O    0.51647   0.84585   0.68602   1.000
    O572    O    0.00807   0.29774   0.71966   1.000
    O573    O    0.49201   0.79772   0.71994   1.000
    O574    O    0.49359   0.38102   0.70193   1.000
    O575    O    0.51334   0.31539   0.72402   1.000
    O576    O    0.99605   0.88113   0.70199   1.000
    O577    O    0.98670   0.81561   0.72409   1.000
    O578    O    0.53205   0.24939   0.74626   1.000
    O579    O    0.96787   0.74971   0.74634   1.000
    O580    O    0.03262   0.24931   0.75306   1.000
    O581    O    0.01377   0.31502   0.77587   1.000
    O582    O    0.46728   0.74943   0.75307   1.000
    O583    O    0.48627   0.81504   0.77590   1.000
    O584    O    0.50782   0.29735   0.77990   1.000
    O585    O    0.99065   0.79757   0.77997   1.000
    O586    O    0.99387   0.38033   0.79840   1.000
    O587    O    0.50630   0.88025   0.79844   1.000
    O588    O    0.01967   0.33368   0.83208   1.000
    O589    O    0.48035   0.83373   0.83210   1.000
    O590    O    0.48387   0.34512   0.81438   1.000
    O591    O    0.50252   0.27949   0.83727   1.000
    O592    O    0.00000   0.84524   0.81447   1.000
    O593    O    0.99597   0.77973   0.83735   1.000
    O594    O    0.65791   0.52116   0.85849   1.000
    O595    O    0.84217   0.02051   0.85862   1.000
    O596    O    0.79727   0.53372   0.86907   1.000
    O597    O    0.70279   0.03313   0.86923   1.000
    O598    O    0.51675   0.20536   0.86053   1.000
    O599    O    0.52728   0.12971   0.89876   1.000
    O600    O    0.98322   0.70569   0.86062   1.000
    O601    O    0.97267   0.62992   0.89881   1.000
    O602    O    0.19920   0.04335   0.88102   1.000
    O603    O    0.30089   0.54345   0.88109   1.000
    O604    O    0.04567   0.28778   0.86737   1.000
    O605    O    0.02368   0.35420   0.88845   1.000
    O606    O    0.45421   0.78796   0.86736   1.000
    O607    O    0.47632   0.85425   0.88848   1.000
    O608    O    0.33946   0.04478   0.88220   1.000
    O609    O    0.16063   0.54479   0.88227   1.000
    O610    O    0.50406   0.26755   0.89165   1.000
    O611    O    0.99597   0.76785   0.89173   1.000
    O612    O    0.49259   0.54550   0.89687   1.000
    O613    O    0.00749   0.04512   0.89690   1.000
    O614    O    0.72217   0.54251   0.88289   1.000
    O615    O    0.64073   0.55570   0.90223   1.000
    O616    O    0.77789   0.04198   0.88299   1.000
    O617    O    0.85931   0.05527   0.90228   1.000
    O618    O    0.79237   0.56691   0.91177   1.000
    O619    O    0.70764   0.06650   0.91186   1.000
    O620    O    0.26826   0.06007   0.90077   1.000
    O621    O    0.19219   0.08038   0.92529   1.000
    O622    O    0.23179   0.56011   0.90085   1.000
    O623    O    0.30780   0.58044   0.92538   1.000
    O624    O    0.34485   0.07976   0.92429   1.000
    O625    O    0.15515   0.57972   0.92438   1.000
    O626    O    0.99607   0.42539   0.90997   1.000
    O627    O    0.97327   0.53108   0.92316   1.000
    O628    O    0.50401   0.92531   0.91006   1.000
    O629    O    0.52679   0.03097   0.92324   1.000
    O630    O    0.03098   0.37126   0.94162   1.000
    O631    O    0.46904   0.87126   0.94165   1.000
    O632    O    0.94326   0.06909   0.92118   1.000
    O633    O    0.02846   0.08503   0.93644   1.000
    O634    O    0.55678   0.56940   0.92118   1.000
    O635    O    0.47153   0.58523   0.93650   1.000
    O636    O    0.63076   0.59407   0.95151   1.000
    O637    O    0.86924   0.09385   0.95149   1.000
    O638    O    0.89180   0.59239   0.93927   1.000
    O639    O    0.78268   0.60339   0.95937   1.000
    O640    O    0.60820   0.09220   0.93932   1.000
    O641    O    0.71729   0.10319   0.95938   1.000
    O642    O    0.04980   0.59841   0.94459   1.000
    O643    O    0.45017   0.09843   0.94454   1.000
    O644    O    0.34681   0.11958   0.97077   1.000
    O645    O    0.15308   0.61948   0.97118   1.000
    O646    O    0.11385   0.10289   0.95291   1.000
    O647    O    0.19420   0.12168   0.97385   1.000
    O648    O    0.38609   0.60297   0.95301   1.000
    O649    O    0.30569   0.62167   0.97394   1.000
    O650    O    0.04866   0.12473   0.97586   1.000
    O651    O    0.45122   0.62478   0.97599   1.000
    O652    O    0.79746   0.11725   0.97972   1.000
    O653    O    0.70250   0.61736   0.97978   1.000
    O654    O    0.27222   0.14119   0.99581   1.000
    O655    O    0.22762   0.64110   0.99621   1.000
loop_
    _geom_bond_atom_site_label_1
    _geom_bond_atom_site_label_2
    _geom_bond_distance
    _geom_bond_site_symmetry_2
    _ccdc_geom_bond_type
    C219   O312      0.69347      .   S
    C220   O312      0.69347      .   S
    C219   O313      0.70340      .   S
    C218   O313      0.70340      .   S
    C219   O314      0.54511  1_554   S
    C84    O314      0.54511      .   S
    C165   O315      0.69348      .   S
    C166   O315      0.69348      .   S
    C165   O316      0.70339      .   S
    C164   O316      0.70339      .   S
    C165   O317      0.54507  1_554   S
    C42    O317      0.54507      .   S
    C86    O318      0.54604      .   S
    C221   O318      0.54604      .   S
    C44    O319      0.54608      .   S
    C167   O319      0.54608      .   S
    C220   O320      0.67340      .   S
    C274   O320      0.67340      .   S
    C220   O321      0.54367  1_554   S
    C85    O321      0.54367      .   S
    C166   O322      0.67340      .   S
    C268   O322      0.67340      .   S
    C166   O323      0.54372  1_554   S
    C43    O323      0.54372      .   S
    C19    O324      0.54565  1_554   S
    C134   O324      0.54565      .   S
    C117   O325      0.54561  1_554   S
    C260   O325      0.54561      .   S
    C223   O326      0.69314      .   S
    C224   O326      0.69314      .   S
    C223   O327      0.67583      .   S
    C275   O327      0.67583      .   S
    C223   O328      0.54512  1_554   S
    C88    O328      0.54512      .   S
    C169   O329      0.69317      .   S
    C170   O329      0.69317      .   S
    C169   O330      0.67578      .   S
    C269   O330      0.67578      .   S
    C169   O331      0.54434  1_554   S
    C46    O331      0.54434      .   S
    C18    O332      0.54434      .   S
    C133   O332      0.54434  1_556   S
    C116   O333      0.54435      .   S
    C259   O333      0.54435  1_556   S
    C224   O334      0.70531      .   S
    C225   O334      0.70531      .   S
    C224   O335      0.54514      .   S
    C89    O335      0.54514  1_556   S
    C170   O336      0.70476      .   S
    C171   O336      0.70476      .   S
    C170   O337      0.54565      .   S
    C47    O337      0.54565  1_556   S
    C15    O338      0.54824      .   S
    C130   O338      0.54824  1_556   S
    C113   O339      0.54368      .   S
    C256   O339      0.54368  1_556   S
    C295   O340      0.64048      .   S
    C179   O340      0.64048      .   S
    C295   O341      1.02982  1_554   S
    C0     O341      1.02982      .   S
    C299   O342      0.64042      .   S
    C197   O342      0.64042      .   S
    C299   O343      1.02997  1_554   S
    C7     O343      1.02997      .   S
    C14    O344      0.54515      .   S
    C129   O344      0.54515  1_556   S
    C112   O345      0.54552      .   S
    C255   O345      0.54552  1_556   S
    C221   O346      0.72761      .   S
    C218   O346      0.72761      .   S
    C221   O347      0.67608      .   S
    C222   O347      0.67608      .   S
    C167   O348      0.72761      .   S
    C164   O348      0.72761      .   S
    C167   O349      0.67602      .   S
    C168   O349      0.67602  1_455   S
    C218   O350      0.70475      .   S
    C217   O350      0.70475      .   S
    C164   O351      0.70475      .   S
    C163   O351      0.70475      .   S
    C274   O352      1.09093      .   S
    C5     O352      1.09093  1_455   S
    C274   O353      0.67638      .   S
    C216   O353      0.67638      .   S
    C268   O354      1.09119      .   S
    C2     O354      1.09119      .   S
    C268   O355      0.67639      .   S
    C162   O355      0.67639      .   S
    C2     O356      1.09376      .   S
    C269   O356      1.09376      .   S
    C2     O357      1.03629      .   S
    C294   O357      1.03629  1_545   S
    C2     O358      1.02795      .   S
    C288   O358      1.02795      .   S
    C2     O359      1.02992      .   S
    C287   O359      1.02992  1_556   S
    C5     O360      1.09384      .   S
    C275   O360      1.09384      .   S
    C5     O361      1.03616      .   S
    C298   O361      1.03616      .   S
    C5     O362      1.02810      .   S
    C300   O362      1.02810      .   S
    C5     O363      1.02997      .   S
    C307   O363      1.02997  1_556   S
    C269   O364      0.67484      .   S
    C173   O364      0.67484      .   S
    C275   O365      0.67481      .   S
    C227   O365      0.67481      .   S
    C171   O366      0.72920      .   S
    C168   O366      0.72920      .   S
    C171   O367      0.70380      .   S
    C172   O367      0.70380      .   S
    C225   O368      0.72918      .   S
    C222   O368      0.72918      .   S
    C225   O369      0.70418      .   S
    C226   O369      0.70418      .   S
    C301   O370      0.63080      .   S
    C210   O370      0.63080      .   S
    C289   O371      0.63087      .   S
    C156   O371      0.63087      .   S
    C222   O372      0.54659      .   S
    C87    O372      0.54659      .   S
    C168   O373      0.54656  1_455   S
    C45    O373      0.54656      .   S
    C179   O374      0.63609      .   S
    C294   O374      0.63609      .   S
    C179   O375      0.74259      .   S
    C178   O375      0.74259      .   S
    C197   O376      0.63609  1_655   S
    C298   O376      0.63609      .   S
    C197   O377      0.74223      .   S
    C196   O377      0.74223      .   S
    C216   O378      0.69324      .   S
    C217   O378      0.69324      .   S
    C216   O379      0.54477      .   S
    C82    O379      0.54477      .   S
    C162   O380      0.69324      .   S
    C163   O380      0.69324      .   S
    C162   O381      0.54479      .   S
    C40    O381      0.54479      .   S
    C217   O382      0.54480      .   S
    C83    O382      0.54480      .   S
    C163   O383      0.54484      .   S
    C41    O383      0.54484      .   S
    C173   O384      0.69431      .   S
    C172   O384      0.69431      .   S
    C173   O385      0.54456      .   S
    C49    O385      0.54456      .   S
    C227   O386      0.69436      .   S
    C226   O386      0.69436      .   S
    C227   O387      0.54458      .   S
    C91    O387      0.54458      .   S
    C172   O388      0.54575      .   S
    C48    O388      0.54575      .   S
    C226   O389      0.54533      .   S
    C90    O389      0.54533      .   S
    C67    O390      0.54520      .   S
    C196   O390      0.54520      .   S
    C53    O391      0.54532      .   S
    C178   O391      0.54532      .   S
    C210   O392      0.64568      .   S
    C300   O392      0.64568      .   S
    C210   O393      0.74474      .   S
    C211   O393      0.74474  1_655   S
    C156   O394      0.64565      .   S
    C288   O394      0.64565      .   S
    C156   O395      0.74468      .   S
    C157   O395      0.74468      .   S
    C196   O396      0.67687      .   S
    C195   O396      0.67687      .   S
    C178   O397      0.67647      .   S
    C177   O397      0.67647      .   S
    C78    O398      0.54640      .   S
    C211   O398      0.54640      .   S
    C36    O399      0.54643      .   S
    C157   O399      0.54643      .   S
    C211   O400      0.67601  1_655   S
    C212   O400      0.67601      .   S
    C157   O401      0.67594      .   S
    C158   O401      0.67594      .   S
    C177   O402      0.54759      .   S
    C52    O402      0.54759      .   S
    C177   O403      0.72037      .   S
    C176   O403      0.72037      .   S
    C195   O404      0.51313      .   S
    C66    O404      0.51313  1_455   S
    C195   O405      0.71984      .   S
    C194   O405      0.71984      .   S
    C51    O406      0.54710      .   S
    C176   O406      0.54710      .   S
    C65    O407      0.54687      .   S
    C194   O407      0.54687      .   S
    C212   O408      0.54699      .   S
    C79    O408      0.54699      .   S
    C212   O409      0.72028      .   S
    C213   O409      0.72028      .   S
    C158   O410      0.54699      .   S
    C37    O410      0.54699      .   S
    C158   O411      0.72047      .   S
    C159   O411      0.72047      .   S
    C194   O412      0.67236      .   S
    C193   O412      0.67236  1_455   S
    C176   O413      0.67560      .   S
    C175   O413      0.67560      .   S
    C80    O414      0.54754      .   S
    C213   O414      0.54754  1_455   S
    C38    O415      0.54760      .   S
    C159   O415      0.54760      .   S
    C213   O416      0.67669      .   S
    C214   O416      0.67669      .   S
    C159   O417      0.67650      .   S
    C160   O417      0.67650      .   S
    C175   O418      0.54653      .   S
    C50    O418      0.54653      .   S
    C175   O419      0.74524      .   S
    C174   O419      0.74524      .   S
    C193   O420      0.51546      .   S
    C64    O420      0.51546      .   S
    C193   O421      0.74299  1_455   S
    C192   O421      0.74299      .   S
    C62    O422      0.54537      .   S
    C190   O422      0.54537      .   S
    C76    O423      0.54538      .   S
    C208   O423      0.54538      .   S
    C63    O424      0.54451      .   S
    C191   O424      0.54451      .   S
    C77    O425      0.54454      .   S
    C209   O425      0.54454      .   S
    C292   O426      0.64591      .   S
    C174   O426      0.64591      .   S
    C292   O427      1.02685      .   S
    C3     O427      1.02685      .   S
    C296   O428      0.64575      .   S
    C192   O428      0.64575      .   S
    C296   O429      1.02606      .   S
    C4     O429      1.02606      .   S
    C69    O430      0.54483      .   S
    C199   O430      0.54483      .   S
    C214   O431      0.54534      .   S
    C81    O431      0.54534      .   S
    C214   O432      0.74229      .   S
    C215   O432      0.74229      .   S
    C55    O433      0.54488      .   S
    C181   O433      0.54488      .   S
    C160   O434      0.54532      .   S
    C39    O434      0.54532      .   S
    C160   O435      0.74228      .   S
    C161   O435      0.74228      .   S
    C68    O436      0.54476      .   S
    C198   O436      0.54476      .   S
    C54    O437      0.54478      .   S
    C180   O437      0.54478      .   S
    C174   O438      0.63057      .   S
    C293   O438      0.63057      .   S
    C192   O439      0.63056      .   S
    C297   O439      0.63056  1_455   S
    C59    O440      0.54579      .   S
    C186   O440      0.54579  1_655   S
    C73    O441      0.54656      .   S
    C204   O441      0.54656      .   S
    C190   O442      0.69434      .   S
    C191   O442      0.69434      .   S
    C190   O443      0.70415      .   S
    C189   O443      0.70415      .   S
    C208   O444      0.69436      .   S
    C209   O444      0.69436      .   S
    C208   O445      0.70415      .   S
    C207   O445      0.70415      .   S
    C191   O446      0.67490      .   S
    C271   O446      0.67490      .   S
    C209   O447      0.67488      .   S
    C273   O447      0.67488      .   S
    C199   O448      0.69320      .   S
    C198   O448      0.69320      .   S
    C199   O449      0.70447      .   S
    C200   O449      0.70447      .   S
    C181   O450      0.69320      .   S
    C180   O450      0.69320      .   S
    C181   O451      0.70454      .   S
    C182   O451      0.70454      .   S
    C198   O452      0.67637      .   S
    C272   O452      0.67637      .   S
    C180   O453      0.67640      .   S
    C270   O453      0.67640      .   S
    C290   O454      0.63583      .   S
    C161   O454      0.63583      .   S
    C290   O455      1.03678      .   S
    C3     O455      1.03678      .   S
    C302   O456      0.63580      .   S
    C215   O456      0.63580  1_455   S
    C302   O457      1.03685  1_545   S
    C4     O457      1.03685      .   S
    C215   O458      0.64057      .   S
    C303   O458      0.64057      .   S
    C161   O459      0.64053      .   S
    C291   O459      0.64053      .   S
    C186   O460      0.72935      .   S
    C189   O460      0.72935      .   S
    C186   O461      0.67654  1_655   S
    C185   O461      0.67654      .   S
    C204   O462      0.72925      .   S
    C207   O462      0.72925      .   S
    C204   O463      0.67605      .   S
    C203   O463      0.67605      .   S
    C189   O464      0.70474      .   S
    C188   O464      0.70474      .   S
    C207   O465      0.70472      .   S
    C206   O465      0.70472      .   S
    C271   O466      1.09464      .   S
    C3     O466      1.09464      .   S
    C271   O467      0.67576      .   S
    C187   O467      0.67576      .   S
    C273   O468      1.09475      .   S
    C4     O468      1.09475      .   S
    C273   O469      0.67574      .   S
    C205   O469      0.67574      .   S
    C3     O470      1.09130      .   S
    C270   O470      1.09130      .   S
    C3     O471      1.02492      .   S
    C283   O471      1.02492      .   S
    C4     O472      1.09121  1_655   S
    C272   O472      1.09121      .   S
    C4     O473      1.02502      .   S
    C311   O473      1.02502      .   S
    C272   O474      0.67345      .   S
    C202   O474      0.67345      .   S
    C270   O475      0.67339      .   S
    C184   O475      0.67339      .   S
    C200   O476      0.72753      .   S
    C203   O476      0.72753      .   S
    C200   O477      0.70361      .   S
    C201   O477      0.70361      .   S
    C182   O478      0.72751      .   S
    C185   O478      0.72751      .   S
    C182   O479      0.70355      .   S
    C183   O479      0.70355      .   S
    C185   O480      0.54603      .   S
    C58    O480      0.54603      .   S
    C203   O481      0.54565      .   S
    C72    O481      0.54565      .   S
    C98    O482      0.54495      .   S
    C237   O482      0.54495      .   S
    C28    O483      0.54499      .   S
    C147   O483      0.54499      .   S
    C303   O484      1.02491      .   S
    C6     O484      1.02491      .   S
    C291   O485      1.02482      .   S
    C1     O485      1.02482      .   S
    C29    O486      0.54892      .   S
    C148   O486      0.54892      .   S
    C99    O487      0.54356      .   S
    C238   O487      0.54356      .   S
    C102   O488      0.54424      .   S
    C241   O488      0.54424      .   S
    C32    O489      0.54420      .   S
    C151   O489      0.54420      .   S
    C188   O490      0.69313      .   S
    C187   O490      0.69313      .   S
    C188   O491      0.54554      .   S
    C61    O491      0.54554      .   S
    C206   O492      0.69312      .   S
    C205   O492      0.69312      .   S
    C206   O493      0.54556      .   S
    C75    O493      0.54556      .   S
    C187   O494      0.54413      .   S
    C60    O494      0.54413      .   S
    C205   O495      0.54425      .   S
    C74    O495      0.54425      .   S
    C103   O496      0.54508      .   S
    C242   O496      0.54508      .   S
    C33    O497      0.54562      .   S
    C152   O497      0.54562      .   S
    C184   O498      0.69341      .   S
    C183   O498      0.69341      .   S
    C184   O499      0.54361      .   S
    C57    O499      0.54361      .   S
    C202   O500      0.69343      .   S
    C201   O500      0.69343      .   S
    C202   O501      0.54356      .   S
    C71    O501      0.54356      .   S
    C183   O502      0.54499      .   S
    C56    O502      0.54499      .   S
    C201   O503      0.54504      .   S
    C70    O503      0.54504      .   S
    C237   O504      0.69343      .   S
    C238   O504      0.69343      .   S
    C237   O505      0.70344      .   S
    C236   O505      0.70344      .   S
    C147   O506      0.69342      .   S
    C148   O506      0.69342      .   S
    C147   O507      0.70346      .   S
    C146   O507      0.70346      .   S
    C30    O508      0.54534      .   S
    C149   O508      0.54534      .   S
    C100   O509      0.54597      .   S
    C239   O509      0.54597      .   S
    C238   O510      0.67345      .   S
    C276   O510      0.67345      .   S
    C148   O511      0.67331      .   S
    C266   O511      0.67331      .   S
    C241   O512      0.69309      .   S
    C242   O512      0.69309      .   S
    C241   O513      0.67581      .   S
    C277   O513      0.67581      .   S
    C151   O514      0.69312      .   S
    C152   O514      0.69312      .   S
    C151   O515      0.67514      .   S
    C267   O515      0.67514      .   S
    C242   O516      0.70521      .   S
    C243   O516      0.70521      .   S
    C152   O517      0.70472      .   S
    C153   O517      0.70472      .   S
    C283   O518      0.64053      .   S
    C125   O518      0.64053      .   S
    C311   O519      0.64048      .   S
    C251   O519      0.64048      .   S
    C149   O520      0.72756      .   S
    C146   O520      0.72756      .   S
    C149   O521      0.67646      .   S
    C150   O521      0.67646  1_455   S
    C239   O522      0.72751      .   S
    C236   O522      0.72751      .   S
    C239   O523      0.67565      .   S
    C240   O523      0.67565      .   S
    C236   O524      0.70472      .   S
    C235   O524      0.70472      .   S
    C146   O525      0.70470      .   S
    C145   O525      0.70470      .   S
    C266   O526      1.09130      .   S
    C1     O526      1.09130      .   S
    C266   O527      0.67592      .   S
    C144   O527      0.67592      .   S
    C276   O528      1.09121      .   S
    C6     O528      1.09121  1_455   S
    C276   O529      0.67644      .   S
    C234   O529      0.67644      .   S
    C6     O530      1.09474      .   S
    C277   O530      1.09474      .   S
    C6     O531      1.03685      .   S
    C310   O531      1.03685  1_565   S
    C6     O532      1.02606      .   S
    C304   O532      1.02606      .   S
    C1     O533      1.09461      .   S
    C267   O533      1.09461      .   S
    C1     O534      1.03649      .   S
    C282   O534      1.03649      .   S
    C1     O535      1.02609      .   S
    C284   O535      1.02609      .   S
    C267   O536      0.67557      .   S
    C155   O536      0.67557      .   S
    C277   O537      0.67487      .   S
    C245   O537      0.67487      .   S
    C243   O538      0.72916      .   S
    C240   O538      0.72916      .   S
    C243   O539      0.70415      .   S
    C244   O539      0.70415      .   S
    C153   O540      0.72923      .   S
    C150   O540      0.72923      .   S
    C153   O541      0.70415      .   S
    C154   O541      0.70415      .   S
    C305   O542      0.63071  1_655   S
    C228   O542      0.63071      .   S
    C285   O543      0.63067      .   S
    C138   O543      0.63067      .   S
    C240   O544      0.54713      .   S
    C101   O544      0.54713      .   S
    C150   O545      0.54654  1_455   S
    C31    O545      0.54654      .   S
    C125   O546      0.63569      .   S
    C282   O546      0.63569      .   S
    C125   O547      0.74227      .   S
    C124   O547      0.74227      .   S
    C251   O548      0.63580  1_655   S
    C310   O548      0.63580      .   S
    C251   O549      0.74229      .   S
    C250   O549      0.74229      .   S
    C144   O550      0.69321      .   S
    C145   O550      0.69321      .   S
    C144   O551      0.54526      .   S
    C26    O551      0.54526      .   S
    C234   O552      0.69320      .   S
    C235   O552      0.69320      .   S
    C234   O553      0.54476      .   S
    C96    O553      0.54476      .   S
    C145   O554      0.54488      .   S
    C27    O554      0.54488      .   S
    C235   O555      0.54482      .   S
    C97    O555      0.54482      .   S
    C245   O556      0.69436      .   S
    C244   O556      0.69436      .   S
    C245   O557      0.54453      .   S
    C105   O557      0.54453      .   S
    C155   O558      0.69435      .   S
    C154   O558      0.69435      .   S
    C155   O559      0.54458      .   S
    C35    O559      0.54458      .   S
    C244   O560      0.54537      .   S
    C104   O560      0.54537      .   S
    C154   O561      0.54535      .   S
    C34    O561      0.54535      .   S
    C11    O562      0.54534      .   S
    C124   O562      0.54534      .   S
    C109   O563      0.54534      .   S
    C250   O563      0.54534      .   S
    C228   O564      0.64574      .   S
    C304   O564      0.64574      .   S
    C228   O565      0.74046      .   S
    C229   O565      0.74046  1_655   S
    C138   O566      0.64576      .   S
    C284   O566      0.64576      .   S
    C138   O567      0.74480      .   S
    C139   O567      0.74480      .   S
    C124   O568      0.67640      .   S
    C123   O568      0.67640      .   S
    C250   O569      0.67649      .   S
    C249   O569      0.67649      .   S
    C92    O570      0.54551      .   S
    C229   O570      0.54551      .   S
    C22    O571      0.54645      .   S
    C139   O571      0.54645      .   S
    C229   O572      0.68099  1_655   S
    C230   O572      0.68099      .   S
    C139   O573      0.67601      .   S
    C140   O573      0.67601      .   S
    C123   O574      0.54760      .   S
    C10    O574      0.54760      .   S
    C123   O575      0.72047      .   S
    C122   O575      0.72047      .   S
    C249   O576      0.51268      .   S
    C108   O576      0.51268  1_455   S
    C249   O577      0.72052      .   S
    C248   O577      0.72052      .   S
    C9     O578      0.54699      .   S
    C122   O578      0.54699      .   S
    C107   O579      0.54700      .   S
    C248   O579      0.54700      .   S
    C230   O580      0.54696      .   S
    C93    O580      0.54696      .   S
    C230   O581      0.72034      .   S
    C231   O581      0.72034      .   S
    C140   O582      0.54697      .   S
    C23    O582      0.54697      .   S
    C140   O583      0.72037      .   S
    C141   O583      0.72037      .   S
    C122   O584      0.67594      .   S
    C121   O584      0.67594      .   S
    C248   O585      0.67137      .   S
    C247   O585      0.67137  1_455   S
    C94    O586      0.54758      .   S
    C231   O586      0.54758  1_455   S
    C24    O587      0.54757      .   S
    C141   O587      0.54757      .   S
    C231   O588      0.67646      .   S
    C232   O588      0.67646      .   S
    C141   O589      0.67647      .   S
    C142   O589      0.67647      .   S
    C121   O590      0.54631      .   S
    C8     O590      0.54631      .   S
    C121   O591      0.74477      .   S
    C120   O591      0.74477      .   S
    C247   O592      0.51512      .   S
    C106   O592      0.51512      .   S
    C247   O593      0.74275  1_455   S
    C246   O593      0.74275      .   S
    C118   O594      0.54541      .   S
    C262   O594      0.54541      .   S
    C20    O595      0.54540      .   S
    C136   O595      0.54540      .   S
    C119   O596      0.54494      .   S
    C263   O596      0.54494      .   S
    C21    O597      0.54456      .   S
    C137   O597      0.54456      .   S
    C280   O598      0.64566      .   S
    C120   O598      0.64566      .   S
    C280   O599      1.02804      .   S
    C0     O599      1.02804      .   S
    C308   O600      0.64566      .   S
    C246   O600      0.64566      .   S
    C308   O601      1.02800      .   S
    C7     O601      1.02800      .   S
    C13    O602      0.54493      .   S
    C127   O602      0.54493      .   S
    C111   O603      0.54488      .   S
    C253   O603      0.54488      .   S
    C232   O604      0.54532      .   S
    C95    O604      0.54532      .   S
    C232   O605      0.74257      .   S
    C233   O605      0.74257      .   S
    C142   O606      0.54532      .   S
    C25    O606      0.54532      .   S
    C142   O607      0.74259      .   S
    C143   O607      0.74259      .   S
    C12    O608      0.54479      .   S
    C126   O608      0.54479      .   S
    C110   O609      0.54477      .   S
    C252   O609      0.54477      .   S
    C120   O610      0.63077      .   S
    C281   O610      0.63077      .   S
    C246   O611      0.63079      .   S
    C309   O611      0.63079  1_455   S
    C115   O612      0.54658      .   S
    C258   O612      0.54658      .   S
    C17    O613      0.54657      .   S
    C132   O613      0.54657  1_655   S
    C262   O614      0.69434      .   S
    C263   O614      0.69434      .   S
    C262   O615      0.70403      .   S
    C261   O615      0.70403      .   S
    C136   O616      0.69435      .   S
    C137   O616      0.69435      .   S
    C136   O617      0.70418      .   S
    C135   O617      0.70418      .   S
    C263   O618      0.67447      .   S
    C279   O618      0.67447      .   S
    C137   O619      0.67484      .   S
    C265   O619      0.67484      .   S
    C127   O620      0.69324      .   S
    C126   O620      0.69324      .   S
    C127   O621      0.70467      .   S
    C128   O621      0.70467      .   S
    C253   O622      0.69324      .   S
    C252   O622      0.69324      .   S
    C253   O623      0.70467      .   S
    C254   O623      0.70467      .   S
    C126   O624      0.67640      .   S
    C264   O624      0.67640      .   S
    C252   O625      0.67639      .   S
    C278   O625      0.67639      .   S
    C306   O626      0.63609      .   S
    C233   O626      0.63609  1_455   S
    C306   O627      1.03616      .   S
    C7     O627      1.03616      .   S
    C286   O628      0.63609      .   S
    C143   O628      0.63609      .   S
    C286   O629      1.03634  1_565   S
    C0     O629      1.03634      .   S
    C233   O630      0.64042      .   S
    C307   O630      0.64042      .   S
    C143   O631      0.64048      .   S
    C287   O631      0.64048      .   S
    C132   O632      0.72920      .   S
    C135   O632      0.72920      .   S
    C132   O633      0.67596  1_655   S
    C131   O633      0.67596      .   S
    C258   O634      0.72917      .   S
    C261   O634      0.72917      .   S
    C258   O635      0.67608      .   S
    C257   O635      0.67608      .   S
    C261   O636      0.70488      .   S
    C260   O636      0.70488      .   S
    C135   O637      0.70476      .   S
    C134   O637      0.70476      .   S
    C279   O638      1.09386      .   S
    C7     O638      1.09386      .   S
    C279   O639      0.67613      .   S
    C259   O639      0.67613      .   S
    C265   O640      1.09377      .   S
    C0     O640      1.09377      .   S
    C265   O641      0.67578      .   S
    C133   O641      0.67578      .   S
    C7     O642      1.09093  1_655   S
    C278   O642      1.09093      .   S
    C0     O643      1.09119      .   S
    C264   O643      1.09119      .   S
    C264   O644      0.66859      .   S
    C130   O644      0.66859      .   S
    C278   O645      0.67340      .   S
    C256   O645      0.67340      .   S
    C128   O646      0.72761      .   S
    C131   O646      0.72761      .   S
    C128   O647      0.70340      .   S
    C129   O647      0.70340      .   S
    C254   O648      0.72761      .   S
    C257   O648      0.72761      .   S
    C254   O649      0.70309      .   S
    C255   O649      0.70309      .   S
    C131   O650      0.54608      .   S
    C16    O650      0.54608      .   S
    C257   O651      0.54612      .   S
    C114   O651      0.54612      .   S
    C134   O652      0.69316      .   S
    C133   O652      0.69316      .   S
    C260   O653      0.69317      .   S
    C259   O653      0.69317      .   S
    C130   O654      0.69381      .   S
    C129   O654      0.69381      .   S
    C256   O655      0.69345      .   S
    C255   O655      0.69345      .   S
