# CIF file generated by openbabel 2.4.90, see http://openbabel.sf.net
data_I
_chemical_name_common ''
_cell_length_a 13.79
_cell_length_b 14.367
_cell_length_c 21.456
_cell_angle_alpha 90.118
_cell_angle_beta 90.021
_cell_angle_gamma 89.909
_space_group_name_H-M_alt 'P 1'
_space_group_name_Hall 'P 1'
loop_
    _symmetry_equiv_pos_as_xyz
    x,y,z
loop_
    _atom_site_label
    _atom_site_type_symbol
    _atom_site_fract_x
    _atom_site_fract_y
    _atom_site_fract_z
    _atom_site_occupancy
    Zr0     Zr   0.52916   0.09772   0.94156   1.000
    Zr1     Zr   0.47076   0.59784   0.55753   1.000
    Zr2     Zr   0.47085   0.90229   0.05843   1.000
    Zr3     Zr   0.52924   0.40218   0.44245   1.000
    Zr4     Zr   0.97077   0.90221   0.44246   1.000
    Zr5     Zr   0.02917   0.40223   0.05843   1.000
    Zr6     Zr   0.02924   0.09781   0.55752   1.000
    Zr7     Zr   0.97083   0.59778   0.94155   1.000
    N8      N    0.52875   0.41058   0.06060   1.000
    O9      O    0.73948   0.40609   0.05799   1.000
    O10     O    0.31848   0.40911   0.06064   1.000
    N11     N    0.97121   0.58960   0.56029   1.000
    O12     O    0.18145   0.59091   0.56010   1.000
    O13     O    0.76049   0.59411   0.55748   1.000
    N14     N    0.98313   0.68307   0.22457   1.000
    O15     O    0.97289   0.65195   0.10565   1.000
    O16     O    0.00493   0.57600   0.15069   1.000
    O17     O    0.97789   0.77621   0.31227   1.000
    N18     N    0.02880   0.41041   0.43965   1.000
    O19     O    0.81855   0.40911   0.43984   1.000
    O20     O    0.23952   0.40591   0.44248   1.000
    N21     N    0.47118   0.91047   0.43967   1.000
    O22     O    0.26047   0.90591   0.44249   1.000
    O23     O    0.68143   0.90919   0.43985   1.000
    N24     N    0.51288   0.31657   0.72438   1.000
    O25     O    0.52520   0.34777   0.60583   1.000
    O26     O    0.52008   0.22314   0.81157   1.000
    O27     O    0.49303   0.42395   0.65025   1.000
    N28     N    0.48712   0.68345   0.27559   1.000
    O29     O    0.47480   0.65224   0.39415   1.000
    O30     O    0.47992   0.77688   0.18841   1.000
    O31     O    0.50697   0.57606   0.34971   1.000
    N32     N    0.01308   0.31695   0.77537   1.000
    O33     O    0.99317   0.42401   0.84927   1.000
    O34     O    0.02022   0.22381   0.68769   1.000
    O35     O    0.02522   0.34806   0.89431   1.000
    N36     N    0.51303   0.18306   0.22453   1.000
    O37     O    0.49312   0.07606   0.15064   1.000
    O38     O    0.52020   0.27619   0.31223   1.000
    O39     O    0.52519   0.15194   0.10563   1.000
    N40     N    0.97128   0.91074   0.06065   1.000
    O41     O    0.76056   0.90617   0.05805   1.000
    O42     O    0.18154   0.90928   0.06066   1.000
    N43     N    0.01282   0.18324   0.27553   1.000
    O44     O    0.02513   0.15211   0.39411   1.000
    O45     O    0.02008   0.27667   0.18836   1.000
    O46     O    0.99296   0.07597   0.34969   1.000
    N47     N    0.52883   0.08955   0.56031   1.000
    O48     O    0.73953   0.09411   0.55749   1.000
    O49     O    0.31857   0.09083   0.56013   1.000
    N50     N    0.98335   0.81677   0.72445   1.000
    O51     O    0.97296   0.84791   0.60588   1.000
    O52     O    0.00512   0.92404   0.65030   1.000
    O53     O    0.97801   0.72335   0.81163   1.000
    N54     N    0.48697   0.81695   0.77544   1.000
    O55     O    0.47482   0.84808   0.89435   1.000
    O56     O    0.47981   0.72383   0.68773   1.000
    O57     O    0.50688   0.92396   0.84934   1.000
    N58     N    0.47125   0.58943   0.93937   1.000
    O59     O    0.68152   0.59091   0.93932   1.000
    O60     O    0.26052   0.59392   0.94198   1.000
    N61     N    0.02872   0.08927   0.93931   1.000
    O62     O    0.23945   0.09385   0.94193   1.000
    O63     O    0.81846   0.09074   0.93932   1.000
loop_
    _geom_bond_atom_site_label_1
    _geom_bond_atom_site_label_2
    _geom_bond_distance
    _geom_bond_site_symmetry_2
    _ccdc_geom_bond_type
    N8     O9        2.90708      .   S
    Zr5    O9        3.99517  1_455   S
    N8     O10       2.89976      .   S
    Zr5    O10       3.99121      .   S
    N11    O12       2.89937  1_655   S
    Zr1    O12       3.99134      .   S
    N11    O13       2.90708      .   S
    Zr1    O13       3.99560      .   S
    N14    O15       2.59331      .   S
    Zr7    O15       3.60445  1_556   S
    N14    O16       2.22656  1_655   S
    Zr5    O16       3.20012      .   S
    N14    O17       2.30787      .   S
    Zr4    O17       3.32690      .   S
    N18    O19       2.89937  1_455   S
    Zr3    O19       3.99135      .   S
    N18    O20       2.90709      .   S
    Zr3    O20       3.99560      .   S
    N21    O22       2.90707      .   S
    Zr4    O22       3.99549  1_655   S
    N21    O23       2.89943      .   S
    Zr4    O23       3.99146      .   S
    N24    O25       2.58943      .   S
    Zr3    O25       3.59363      .   S
    N24    O26       2.30673      .   S
    Zr0    O26       3.32580      .   S
    N24    O27       2.23463      .   S
    Zr1    O27       3.21096      .   S
    N28    O29       2.58955      .   S
    Zr1    O29       3.59365      .   S
    N28    O30       2.30663      .   S
    Zr2    O30       3.32560      .   S
    N28    O31       2.23442      .   S
    Zr3    O31       3.21124      .   S
    N32    O33       2.22350  1_455   S
    Zr7    O33       3.19778      .   S
    N32    O34       2.30848      .   S
    Zr6    O34       3.32740      .   S
    N32    O35       2.59528      .   S
    Zr5    O35       3.60516  1_554   S
    N36    O37       2.22333      .   S
    Zr2    O37       3.19724  1_565   S
    N36    O38       2.30878      .   S
    Zr3    O38       3.32849      .   S
    N36    O39       2.59455      .   S
    Zr0    O39       3.60416  1_556   S
    N40    O41       2.90723      .   S
    Zr2    O41       3.99561      .   S
    N40    O42       2.89958  1_655   S
    Zr2    O42       3.99088      .   S
    N43    O44       2.58958      .   S
    Zr6    O44       3.59386      .   S
    N43    O45       2.30675      .   S
    Zr5    O45       3.32611      .   S
    N43    O46       2.23457  1_455   S
    Zr4    O46       3.21122  1_565   S
    N47    O48       2.90707      .   S
    Zr6    O48       3.99549  1_455   S
    N47    O49       2.89943      .   S
    Zr6    O49       3.99145      .   S
    N50    O51       2.58797      .   S
    Zr4    O51       3.59364      .   S
    N50    O52       2.23801  1_655   S
    Zr6    O52       3.21390  1_545   S
    N50    O53       2.30575      .   S
    Zr7    O53       3.32512      .   S
    N54    O55       2.59474      .   S
    Zr2    O55       3.60446  1_554   S
    N54    O56       2.30902      .   S
    Zr1    O56       3.32801      .   S
    N54    O57       2.22347      .   S
    Zr0    O57       3.19744  1_545   S
    N58    O59       2.89976      .   S
    Zr7    O59       3.99122      .   S
    N58    O60       2.90708      .   S
    Zr7    O60       3.99517  1_655   S
    N61    O62       2.90724      .   S
    Zr0    O62       3.99561      .   S
    N61    O63       2.89957  1_455   S
    Zr0    O63       3.99088      .   S
