# CIF file generated by openbabel 2.4.90, see http://openbabel.sf.net
data_I
_chemical_name_common ''
_cell_length_a 8.75381
_cell_length_b 9.01039
_cell_length_c 14.899
_cell_angle_alpha 90.0054
_cell_angle_beta 90.0205
_cell_angle_gamma 90.0046
_space_group_name_H-M_alt 'P 1'
_space_group_name_Hall 'P 1'
loop_
    _symmetry_equiv_pos_as_xyz
    x,y,z
loop_
    _atom_site_label
    _atom_site_type_symbol
    _atom_site_fract_x
    _atom_site_fract_y
    _atom_site_fract_z
    _atom_site_occupancy
    H0      H    0.18144   0.14920   0.77884   1.000
    H1      H    0.24971   0.73586   0.63951   1.000
    H2      H    0.31739   0.14961   0.50057   1.000
    H3      H    0.31812   0.64910   0.27887   1.000
    H4      H    0.24993   0.23578   0.13949   1.000
    H5      H    0.18253   0.64953   0.00049   1.000
    H6      H    0.81700   0.85132   0.77904   1.000
    H7      H    0.74974   0.26501   0.63999   1.000
    H8      H    0.68146   0.85165   0.50065   1.000
    H9      H    0.68236   0.35121   0.27891   1.000
    H10     H    0.75004   0.76494   0.14000   1.000
    H11     H    0.81830   0.35163   0.00064   1.000
    C12     C    0.24930   0.16771   0.63969   1.000
    C13     C    0.21044   0.08939   0.71765   1.000
    C14     C    0.20953   0.93393   0.71757   1.000
    C15     C    0.24966   0.85669   0.63955   1.000
    C16     C    0.28968   0.93416   0.56162   1.000
    C17     C    0.28848   0.08963   0.56170   1.000
    C18     C    0.25035   0.66762   0.13968   1.000
    C19     C    0.28917   0.58930   0.21766   1.000
    C20     C    0.29005   0.43384   0.21758   1.000
    C21     C    0.25002   0.35661   0.13953   1.000
    C22     C    0.21006   0.43408   0.06158   1.000
    C23     C    0.21134   0.58954   0.06165   1.000
    C24     C    0.74918   0.83322   0.63985   1.000
    C25     C    0.79739   0.92049   0.71788   1.000
    C26     C    0.78954   0.06674   0.71793   1.000
    C27     C    0.74959   0.14418   0.63996   1.000
    C28     C    0.70956   0.06695   0.56191   1.000
    C29     C    0.71038   0.91149   0.56185   1.000
    C30     C    0.75045   0.33315   0.13978   1.000
    C31     C    0.71124   0.41121   0.21778   1.000
    C32     C    0.71005   0.56665   0.21787   1.000
    C33     C    0.75004   0.64411   0.13994   1.000
    C34     C    0.79020   0.56692   0.06192   1.000
    C35     C    0.78926   0.41146   0.06182   1.000
loop_
    _geom_bond_atom_site_label_1
    _geom_bond_atom_site_label_2
    _geom_bond_distance
    _geom_bond_site_symmetry_2
    _ccdc_geom_bond_type
    H5     C23       1.08901      .   S
    H11    C35       1.08905      .   S
    C22    C23       1.40083      .   S
    C22    C21       1.39943      .   S
    C23    C18       1.40103      .   S
    C35    C34       1.40082      .   S
    C35    C30       1.40107      .   S
    C34    C33       1.39958      .   S
    H4     C21       1.08874      .   S
    C21    C20       1.39955      .   S
    C18    C19       1.40119      .   S
    C30    C31       1.40103      .   S
    C33    H10       1.08874      .   S
    C33    C32       1.39943      .   S
    C20    C19       1.40078      .   S
    C19    H3        1.08902      .   S
    C31    C32       1.40059      .   S
    C31    H9        1.08903      .   S
    H2     C17       1.08900      .   S
    H8     C29       1.08905      .   S
    C16    C17       1.40084  1_565   S
    C16    C15       1.39947      .   S
    C17    C12       1.40106      .   S
    C29    C28       1.40085  1_565   S
    C29    C24       1.40113      .   S
    C28    C27       1.39956      .   S
    H1     C15       1.08875      .   S
    C15    C14       1.39965      .   S
    C12    C13       1.40118      .   S
    C24    C25       1.46543      .   S
    C27    H7        1.08873      .   S
    C27    C26       1.39943      .   S
    C14    C13       1.40080  1_565   S
    C13    H0        1.08904      .   S
    C25    C26       1.31958  1_565   S
    C25    H6        1.11723      .   S
