# CIF file generated by openbabel 2.4.90, see http://openbabel.sf.net
data_I
_chemical_name_common ''
_cell_length_a 8.75381
_cell_length_b 9.01039
_cell_length_c 14.899
_cell_angle_alpha 90.0054
_cell_angle_beta 90.0205
_cell_angle_gamma 90.0046
_space_group_name_H-M_alt 'P 1'
_space_group_name_Hall 'P 1'
loop_
    _symmetry_equiv_pos_as_xyz
    x,y,z
loop_
    _atom_site_label
    _atom_site_type_symbol
    _atom_site_fract_x
    _atom_site_fract_y
    _atom_site_fract_z
    _atom_site_occupancy
    C0      C    0.24909   0.33415   0.63970   1.000
    C1      C    0.16068   0.84980   0.79942   1.000
    C2      C    0.33906   0.85057   0.47967   1.000
    C3      C    0.25067   0.83405   0.13970   1.000
    C4      C    0.33903   0.34973   0.29943   1.000
    C5      C    0.16089   0.35047   0.97960   1.000
    C6      C    0.74888   0.66679   0.63989   1.000
    C7      C    0.83880   0.15037   0.79991   1.000
    C8      C    0.66069   0.15112   0.48005   1.000
    C9      C    0.75072   0.16672   0.13979   1.000
    C10     C    0.66078   0.65030   0.29983   1.000
    C11     C    0.83917   0.65108   0.98012   1.000
    O12     O    0.33459   0.40152   0.58406   1.000
    O13     O    0.16332   0.40135   0.69526   1.000
    O14     O    0.14750   0.91981   0.87314   1.000
    O15     O    0.13289   0.71208   0.79083   1.000
    O16     O    0.36634   0.71265   0.48774   1.000
    O17     O    0.35296   0.92130   0.40628   1.000
    O18     O    0.16526   0.90145   0.08400   1.000
    O19     O    0.33625   0.90120   0.19542   1.000
    O20     O    0.36689   0.21203   0.29084   1.000
    O21     O    0.35209   0.41971   0.37317   1.000
    O22     O    0.14715   0.42116   0.90617   1.000
    O23     O    0.13342   0.21261   0.98769   1.000
    O24     O    0.66310   0.59955   0.58432   1.000
    O25     O    0.83451   0.59949   0.69552   1.000
    O26     O    0.85251   0.07971   0.87335   1.000
    O27     O    0.86635   0.28822   0.79176   1.000
    O28     O    0.63285   0.28882   0.48866   1.000
    O29     O    0.64766   0.08124   0.40628   1.000
    O30     O    0.83669   0.09957   0.08433   1.000
    O31     O    0.66505   0.09934   0.19534   1.000
    O32     O    0.63347   0.78818   0.29172   1.000
    O33     O    0.64693   0.57960   0.37324   1.000
    O34     O    0.85245   0.58117   0.90638   1.000
    O35     O    0.86690   0.78881   0.98874   1.000
loop_
    _geom_bond_atom_site_label_1
    _geom_bond_atom_site_label_2
    _geom_bond_distance
    _geom_bond_site_symmetry_2
    _ccdc_geom_bond_type
    O18    C3        1.27127      .   S
    O30    C9        1.27114      .   S
    C3     O19       1.27116      .   S
    C9     O31       1.27133      .   S
    O20    C4        1.27092      .   S
    O32    C10       1.27090      .   S
    C4     O21       1.27176      .   S
    C10    O33       1.27164      .   S
    O17    C2        1.27159      .   S
    O29    C8        1.27169      .   S
    C2     O16       1.27115      .   S
    C8     O28       1.27093      .   S
    O12    C0        1.27129      .   S
    O24    C6        1.27115      .   S
    C0     O13       1.27114      .   S
    C6     O25       1.27129      .   S
    O15    C1        1.27096      .   S
    O27    C7        1.27108      .   S
    C1     O14       1.27175      .   S
    C7     O26       1.27168      .   S
    O22    C5        1.27163      .   S
    O34    C11       1.27167      .   S
    C5     O23       1.27101      .   S
    C11    O35       1.27097      .   S
