# CIF file generated by openbabel 2.4.90, see http://openbabel.sf.net
data_I
_chemical_name_common ''
_cell_length_a 8.75381
_cell_length_b 9.01039
_cell_length_c 14.899
_cell_angle_alpha 90.0054
_cell_angle_beta 90.0205
_cell_angle_gamma 90.0046
_space_group_name_H-M_alt 'P 1'
_space_group_name_Hall 'P 1'
loop_
    _symmetry_equiv_pos_as_xyz
    x,y,z
loop_
    _atom_site_label
    _atom_site_type_symbol
    _atom_site_fract_x
    _atom_site_fract_y
    _atom_site_fract_z
    _atom_site_occupancy
    Zr0     Zr   0.99920   0.50046   0.79304   1.000
    Zr1     Zr   0.50069   0.00043   0.29303   1.000
    Zr2     Zr   0.00060   0.00039   0.98647   1.000
    Zr3     Zr   0.49908   0.50039   0.48646   1.000
    Zr4     Zr   0.24909   0.33415   0.63970   1.000
    Zr5     Zr   0.16068   0.84980   0.79942   1.000
    Zr6     Zr   0.33906   0.85057   0.47967   1.000
    Zr7     Zr   0.25067   0.83405   0.13970   1.000
    Zr8     Zr   0.33903   0.34973   0.29943   1.000
    Zr9     Zr   0.16089   0.35047   0.97960   1.000
    Zr10    Zr   0.74888   0.66679   0.63989   1.000
    Zr11    Zr   0.83880   0.15037   0.79991   1.000
    Zr12    Zr   0.66069   0.15112   0.48005   1.000
    Zr13    Zr   0.75072   0.16672   0.13979   1.000
    Zr14    Zr   0.66078   0.65030   0.29983   1.000
    Zr15    Zr   0.83917   0.65108   0.98012   1.000
    Zr16    Zr   0.33459   0.40152   0.58406   1.000
    Zr17    Zr   0.16332   0.40135   0.69526   1.000
    Zr18    Zr   0.14750   0.91981   0.87314   1.000
    Zr19    Zr   0.13289   0.71208   0.79083   1.000
    Zr20    Zr   0.36634   0.71265   0.48774   1.000
    Zr21    Zr   0.35296   0.92130   0.40628   1.000
    Zr22    Zr   0.16526   0.90145   0.08400   1.000
    Zr23    Zr   0.33625   0.90120   0.19542   1.000
    Zr24    Zr   0.36689   0.21203   0.29084   1.000
    Zr25    Zr   0.35209   0.41971   0.37317   1.000
    Zr26    Zr   0.14715   0.42116   0.90617   1.000
    Zr27    Zr   0.13342   0.21261   0.98769   1.000
    Zr28    Zr   0.66310   0.59955   0.58432   1.000
    Zr29    Zr   0.83451   0.59949   0.69552   1.000
    Zr30    Zr   0.85251   0.07971   0.87335   1.000
    Zr31    Zr   0.86635   0.28822   0.79176   1.000
    Zr32    Zr   0.63285   0.28882   0.48866   1.000
    Zr33    Zr   0.64766   0.08124   0.40628   1.000
    Zr34    Zr   0.83669   0.09957   0.08433   1.000
    Zr35    Zr   0.66505   0.09934   0.19534   1.000
    Zr36    Zr   0.63347   0.78818   0.29172   1.000
    Zr37    Zr   0.64693   0.57960   0.37324   1.000
    Zr38    Zr   0.85245   0.58117   0.90638   1.000
    Zr39    Zr   0.86690   0.78881   0.98874   1.000
    O40     O    0.20796   0.86775   0.11185   1.000
    O41     O    0.08293   0.95092   0.03523   1.000
    O42     O    0.79371   0.13314   0.11206   1.000
    O43     O    0.91865   0.04998   0.03540   1.000
    O44     O    0.29346   0.86763   0.16756   1.000
    O45     O    0.70788   0.13303   0.16756   1.000
    O46     O    0.58287   0.04989   0.24418   1.000
    O47     O    0.41847   0.95082   0.24423   1.000
    O48     O    0.43379   0.10623   0.29193   1.000
    O49     O    0.35296   0.28088   0.29514   1.000
    O50     O    0.56708   0.89431   0.29237   1.000
    O51     O    0.64713   0.71924   0.29577   1.000
    O52     O    0.42683   0.96086   0.34965   1.000
    O53     O    0.57417   0.04084   0.34966   1.000
    O54     O    0.34556   0.38472   0.33630   1.000
    O55     O    0.65385   0.61495   0.33653   1.000
    O56     O    0.42559   0.46005   0.42982   1.000
    O57     O    0.57300   0.54000   0.42985   1.000
    O58     O    0.34601   0.88593   0.44297   1.000
    O59     O    0.65418   0.11618   0.44316   1.000
    O60     O    0.35270   0.78161   0.48371   1.000
    O61     O    0.64677   0.21997   0.48435   1.000
    O62     O    0.43271   0.60652   0.48710   1.000
    O63     O    0.56596   0.39461   0.48756   1.000
    O64     O    0.41683   0.45096   0.53526   1.000
    O65     O    0.58109   0.54997   0.53539   1.000
    O66     O    0.29184   0.36784   0.61188   1.000
    O67     O    0.70599   0.63317   0.61210   1.000
    O68     O    0.20620   0.36775   0.66748   1.000
    O69     O    0.79169   0.63314   0.66770   1.000
    O70     O    0.08126   0.45091   0.74415   1.000
    O71     O    0.91685   0.54998   0.74428   1.000
    O72     O    0.06605   0.60627   0.79193   1.000
    O73     O    0.14679   0.78094   0.79513   1.000
    O74     O    0.93278   0.39434   0.79240   1.000
    O75     O    0.85257   0.21930   0.79584   1.000
    O76     O    0.07318   0.46081   0.84960   1.000
    O77     O    0.92583   0.54082   0.84971   1.000
    O78     O    0.15409   0.88481   0.83628   1.000
    O79     O    0.84566   0.11504   0.83663   1.000
    O80     O    0.07405   0.96010   0.92980   1.000
    O81     O    0.92656   0.04005   0.92991   1.000
    O82     O    0.15402   0.38582   0.94288   1.000
    O83     O    0.84581   0.61612   0.94325   1.000
    O84     O    0.14715   0.28154   0.98364   1.000
    O85     O    0.85304   0.71994   0.98443   1.000
    O86     O    0.06701   0.10650   0.98708   1.000
    O87     O    0.93375   0.89460   0.98760   1.000
    N88     N    0.24951   0.01180   0.63963   1.000
    O89     O    0.24935   0.13137   0.63967   1.000
    O90     O    0.28194   0.95208   0.58014   1.000
    O91     O    0.21731   0.95183   0.69906   1.000
    N92     N    0.75022   0.48903   0.13985   1.000
    O93     O    0.78245   0.54902   0.08043   1.000
    O94     O    0.75040   0.36948   0.13982   1.000
    O95     O    0.71781   0.54875   0.19935   1.000
    N96     N    0.75043   0.99012   0.63989   1.000
    O97     O    0.71778   0.04958   0.58044   1.000
    O98     O    0.74973   0.87006   0.63988   1.000
    O99     O    0.78230   0.04934   0.69941   1.000
    N100    N    0.25017   0.51171   0.13962   1.000
    O101    O    0.25034   0.63127   0.13965   1.000
    O102    O    0.28236   0.45175   0.19906   1.000
    O103    O    0.21782   0.45199   0.08010   1.000
loop_
    _geom_bond_atom_site_label_1
    _geom_bond_atom_site_label_2
    _geom_bond_distance
    _geom_bond_site_symmetry_2
    _ccdc_geom_bond_type
    Zr22   O40       0.63563      .   S
    Zr7    O40       0.63563      .   S
    Zr22   O41       1.11614      .   S
    Zr2    O41       1.11614  1_546   S
    Zr34   O42       0.63557      .   S
    Zr13   O42       0.63557      .   S
    Zr34   O43       1.11630      .   S
    Zr2    O43       1.11630  1_456   S
    Zr7    O44       0.63558      .   S
    Zr23   O44       0.63558      .   S
    Zr13   O45       0.63567      .   S
    Zr35   O45       0.63567      .   S
    Zr35   O46       1.11631      .   S
    Zr1    O46       1.11631      .   S
    Zr23   O47       1.11633      .   S
    Zr1    O47       1.11633  1_545   S
    Zr24   O48       1.11896      .   S
    Zr1    O48       1.11896      .   S
    Zr24   O49       0.63546      .   S
    Zr8    O49       0.63546      .   S
    Zr36   O50       1.11910      .   S
    Zr1    O50       1.11910  1_545   S
    Zr36   O51       0.63545      .   S
    Zr14   O51       0.63545      .   S
    Zr1    O52       1.12126  1_545   S
    Zr21   O52       1.12126      .   S
    Zr1    O53       1.12145      .   S
    Zr33   O53       1.12145      .   S
    Zr8    O54       0.63588      .   S
    Zr25   O54       0.63588      .   S
    Zr14   O55       0.63582      .   S
    Zr37   O55       0.63582      .   S
    Zr25   O56       1.12152      .   S
    Zr3    O56       1.12152      .   S
    Zr37   O57       1.12157      .   S
    Zr3    O57       1.12157      .   S
    Zr21   O58       0.63580      .   S
    Zr6    O58       0.63580      .   S
    Zr33   O59       0.63584      .   S
    Zr12   O59       0.63584      .   S
    Zr6    O60       0.63558      .   S
    Zr20   O60       0.63558      .   S
    Zr12   O61       0.63546      .   S
    Zr32   O61       0.63546      .   S
    Zr3    O62       1.11900      .   S
    Zr20   O62       1.11900      .   S
    Zr3    O63       1.11880      .   S
    Zr32   O63       1.11880      .   S
    Zr3    O64       1.11616      .   S
    Zr16   O64       1.11616      .   S
    Zr3    O65       1.11619      .   S
    Zr28   O65       1.11619      .   S
    Zr16   O66       0.63564      .   S
    Zr4    O66       0.63564      .   S
    Zr28   O67       0.63557      .   S
    Zr10   O67       0.63557      .   S
    Zr4    O68       0.63557      .   S
    Zr17   O68       0.63557      .   S
    Zr10   O69       0.63565      .   S
    Zr29   O69       0.63565      .   S
    Zr17   O70       1.11640      .   S
    Zr0    O70       1.11640  1_655   S
    Zr29   O71       1.11631      .   S
    Zr0    O71       1.11631      .   S
    Zr19   O72       1.11872      .   S
    Zr0    O72       1.11872  1_655   S
    Zr19   O73       0.63548      .   S
    Zr5    O73       0.63548      .   S
    Zr31   O74       1.11912      .   S
    Zr0    O74       1.11912      .   S
    Zr31   O75       0.63554      .   S
    Zr11   O75       0.63554      .   S
    Zr0    O76       1.12115  1_655   S
    Zr26   O76       1.12115      .   S
    Zr0    O77       1.12164      .   S
    Zr38   O77       1.12164      .   S
    Zr5    O78       0.63587      .   S
    Zr18   O78       0.63587      .   S
    Zr11   O79       0.63584      .   S
    Zr30   O79       0.63584      .   S
    Zr18   O80       1.12175      .   S
    Zr2    O80       1.12175  1_545   S
    Zr30   O81       1.12143      .   S
    Zr2    O81       1.12143  1_455   S
    Zr26   O82       0.63581      .   S
    Zr9    O82       0.63581      .   S
    Zr38   O83       0.63583      .   S
    Zr15   O83       0.63583      .   S
    Zr9    O84       0.63550      .   S
    Zr27   O84       0.63550      .   S
    Zr15   O85       0.63549      .   S
    Zr39   O85       0.63549      .   S
    Zr2    O86       1.11893      .   S
    Zr27   O86       1.11893      .   S
    Zr2    O87       1.11863  1_445   S
    Zr39   O87       1.11863      .   S
    N88    O89       1.07736      .   S
    Zr4    O89       1.82721      .   S
    N88    O90       1.07514  1_545   S
    Zr6    O90       1.82416      .   S
    N88    O91       1.07503  1_545   S
    Zr5    O91       1.82411      .   S
    N92    O93       1.07502      .   S
    Zr15   O93       1.82397  1_556   S
    N92    O94       1.07717      .   S
    Zr13   O94       1.82701      .   S
    N92    O95       1.07517      .   S
    Zr14   O95       1.82425      .   S
    N96    O97       1.07399  1_565   S
    Zr12   O97       1.82312      .   S
    N96    O98       1.08177      .   S
    Zr10   O98       1.83157      .   S
    N96    O99       1.07165  1_565   S
    Zr11   O99       1.82061      .   S
    N100   O101      1.07731      .   S
    Zr7    O101      1.82711      .   S
    N100   O102      1.07502      .   S
    Zr8    O102      1.82407      .   S
    N100   O103      1.07502      .   S
    Zr9    O103      1.82387  1_556   S
