# CIF file generated by openbabel 2.4.90, see http://openbabel.sf.net
data_I
_chemical_name_common ''
_cell_length_a 8.75381
_cell_length_b 9.01039
_cell_length_c 14.899
_cell_angle_alpha 90.0054
_cell_angle_beta 90.0205
_cell_angle_gamma 90.0046
_space_group_name_H-M_alt 'P 1'
_space_group_name_Hall 'P 1'
loop_
    _symmetry_equiv_pos_as_xyz
    x,y,z
loop_
    _atom_site_label
    _atom_site_type_symbol
    _atom_site_fract_x
    _atom_site_fract_y
    _atom_site_fract_z
    _atom_site_occupancy
    Zr0     Zr   0.99920   0.50046   0.79304   1.000
    Zr1     Zr   0.50069   0.00043   0.29303   1.000
    Zr2     Zr   0.00060   0.00039   0.98647   1.000
    Zr3     Zr   0.49908   0.50039   0.48646   1.000
    N4      N    0.24951   0.01180   0.63963   1.000
    N5      N    0.75022   0.48903   0.13985   1.000
    N6      N    0.75043   0.99012   0.63989   1.000
    N7      N    0.25017   0.51171   0.13962   1.000
    C8      C    0.14715   0.32808   0.95782   1.000
    O9      O    0.10708   0.21729   0.97245   1.000
    O10     O    0.18249   0.39004   0.01896   1.000
    O11     O    0.11016   0.39445   0.90371   1.000
    C12     C    0.64707   0.17373   0.45833   1.000
    O13     O    0.61062   0.10728   0.40399   1.000
    O14     O    0.68242   0.11165   0.51938   1.000
    O15     O    0.60651   0.28417   0.47294   1.000
    C16     C    0.35267   0.32716   0.32115   1.000
    O17     O    0.31751   0.38945   0.26010   1.000
    O18     O    0.39323   0.21669   0.30654   1.000
    O19     O    0.38913   0.39360   0.37548   1.000
    C20     C    0.74883   0.62194   0.63991   1.000
    O21     O    0.66496   0.58596   0.58765   1.000
    O22     O    0.74928   0.74600   0.63989   1.000
    O23     O    0.83284   0.58596   0.69209   1.000
    C24     C    0.64706   0.67269   0.32160   1.000
    O25     O    0.60707   0.78350   0.30698   1.000
    O26     O    0.61003   0.60634   0.37572   1.000
    O27     O    0.68244   0.61072   0.26047   1.000
    C28     C    0.75082   0.12187   0.13982   1.000
    O29     O    0.83473   0.08593   0.08761   1.000
    O30     O    0.75061   0.24568   0.13982   1.000
    O31     O    0.66684   0.08588   0.19200   1.000
    C32     C    0.24900   0.37901   0.63967   1.000
    O33     O    0.33292   0.41498   0.58747   1.000
    O34     O    0.16513   0.41496   0.69191   1.000
    O35     O    0.24918   0.25519   0.63967   1.000
    C36     C    0.35279   0.82817   0.45790   1.000
    O37     O    0.31737   0.89013   0.51902   1.000
    O38     O    0.39275   0.71735   0.47250   1.000
    O39     O    0.38981   0.89452   0.40378   1.000
    C40     C    0.85284   0.67369   0.95841   1.000
    O41     O    0.89330   0.78414   0.97301   1.000
    O42     O    0.81765   0.61135   0.01942   1.000
    O43     O    0.88933   0.60725   0.90406   1.000
    C44     C    0.14702   0.82723   0.82113   1.000
    O45     O    0.11054   0.89367   0.87547   1.000
    O46     O    0.18217   0.88953   0.76010   1.000
    O47     O    0.10654   0.71675   0.80653   1.000
    C48     C    0.25072   0.87890   0.13971   1.000
    O49     O    0.33459   0.91486   0.19197   1.000
    O50     O    0.16683   0.91491   0.08747   1.000
    O51     O    0.25053   0.75509   0.13968   1.000
    C52     C    0.85255   0.17277   0.82167   1.000
    O53     O    0.81743   0.11105   0.76054   1.000
    O54     O    0.89266   0.28355   0.80704   1.000
    O55     O    0.88956   0.10641   0.87579   1.000
loop_
    _geom_bond_atom_site_label_1
    _geom_bond_atom_site_label_2
    _geom_bond_distance
    _geom_bond_site_symmetry_2
    _ccdc_geom_bond_type
    C8     O9        1.08033      .   S
    Zr2    O9        2.17527      .   S
    C8     O10       1.11213  1_556   S
    N7     O10       2.18708      .   S
    C8     O11       1.05462      .   S
    Zr0    O11       2.13876  1_655   S
    C12    O13       1.05608      .   S
    Zr1    O13       2.14115      .   S
    C12    O14       1.11175      .   S
    N6     O14       2.18568  1_565   S
    C12    O15       1.07877      .   S
    Zr3    O15       2.17284      .   S
    C16    O17       1.11214      .   S
    N7     O17       2.18709      .   S
    C16    O18       1.07894      .   S
    Zr1    O18       2.17318      .   S
    C16    O19       1.05610      .   S
    Zr3    O19       2.14119      .   S
    C20    O21       1.11800      .   S
    Zr3    O21       2.23022      .   S
    C20    O22       1.11782      .   S
    N6     O22       2.19959      .   S
    C20    O23       1.11810      .   S
    Zr0    O23       2.23046      .   S
    C24    O25       1.08019      .   S
    Zr1    O25       2.17518  1_545   S
    C24    O26       1.05502      .   S
    Zr3    O26       2.13967      .   S
    C24    O27       1.11226      .   S
    N5     O27       2.18736      .   S
    C28    O29       1.11803      .   S
    Zr2    O29       2.23035  1_456   S
    C28    O30       1.11553      .   S
    N5     O30       2.19270      .   S
    C28    O31       1.11824      .   S
    Zr1    O31       2.23065      .   S
    C32    O33       1.11808      .   S
    Zr3    O33       2.23032      .   S
    C32    O34       1.11805      .   S
    Zr0    O34       2.23046  1_655   S
    C32    O35       1.11567      .   S
    N4     O35       2.19303      .   S
    C36    O37       1.11229      .   S
    N4     O37       2.18736  1_545   S
    C36    O38       1.08023      .   S
    Zr3    O38       2.17515      .   S
    C36    O39       1.05491      .   S
    Zr1    O39       2.13927  1_545   S
    C40    O41       1.07847      .   S
    Zr2    O41       2.17227  1_445   S
    C40    O42       1.11218  1_556   S
    N5     O42       2.18713      .   S
    C40    O43       1.05652      .   S
    Zr0    O43       2.14196      .   S
    C44    O45       1.05633      .   S
    Zr2    O45       2.14172  1_545   S
    C44    O46       1.11217      .   S
    N4     O46       2.18713  1_545   S
    C44    O47       1.07875      .   S
    Zr0    O47       2.17272  1_655   S
    C48    O49       1.11792      .   S
    Zr1    O49       2.23022  1_545   S
    C48    O50       1.11805      .   S
    Zr2    O50       2.23025  1_546   S
    C48    O51       1.11561      .   S
    N7     O51       2.19292      .   S
    C52    O53       1.11043      .   S
    N6     O53       2.18199  1_565   S
    C52    O54       1.08046      .   S
    Zr0    O54       2.17556      .   S
    C52    O55       1.05473      .   S
    Zr2    O55       2.13911  1_455   S
