# CIF file generated by openbabel 2.4.90, see http://openbabel.sf.net
data_I
_chemical_name_common ''
_cell_length_a 13.075
_cell_length_b 13.975
_cell_length_c 16.924
_cell_angle_alpha 90.001
_cell_angle_beta 90
_cell_angle_gamma 89.9
_space_group_name_H-M_alt 'P 1'
_space_group_name_Hall 'P 1'
loop_
    _symmetry_equiv_pos_as_xyz
    x,y,z
loop_
    _atom_site_label
    _atom_site_type_symbol
    _atom_site_fract_x
    _atom_site_fract_y
    _atom_site_fract_z
    _atom_site_occupancy
    Zn0     Zn   0.92844   0.48241   0.90369   1.000
    Zn1     Zn   0.02236   0.09231   0.07042   1.000
    Zn2     Zn   0.07154   0.01758   0.40368   1.000
    Zn3     Zn   0.47622   0.59223   0.92900   1.000
    Zn4     Zn   0.42734   0.51938   0.59612   1.000
    Zn5     Zn   0.52377   0.90777   0.42947   1.000
    Zn6     Zn   0.57264   0.98063   0.09611   1.000
    Zn7     Zn   0.02236   0.59230   0.42958   1.000
    Zn8     Zn   0.07156   0.51758   0.09632   1.000
    Zn9     Zn   0.97765   0.90768   0.92959   1.000
    Zn10    Zn   0.92844   0.98238   0.59635   1.000
    Zn11    Zn   0.52378   0.40778   0.07052   1.000
    Zn12    Zn   0.57265   0.48062   0.40391   1.000
    Zn13    Zn   0.47621   0.09222   0.57051   1.000
    Zn14    Zn   0.42737   0.01938   0.90389   1.000
    H15     H    0.94564   0.20038   0.65110   1.000
    H16     H    0.73891   0.35896   0.50487   1.000
    H17     H    0.06057   0.22748   0.35845   1.000
    H18     H    0.06717   0.33682   0.40548   1.000
    H19     H    0.72482   0.61254   0.31690   1.000
    H20     H    0.84813   0.65168   0.33497   1.000
    H21     H    0.05437   0.29958   0.15107   1.000
    H22     H    0.26109   0.14104   0.00480   1.000
    H23     H    0.93936   0.27252   0.85846   1.000
    H24     H    0.93279   0.16317   0.90548   1.000
    H25     H    0.27524   0.88743   0.81698   1.000
    H26     H    0.15193   0.84827   0.83497   1.000
    H27     H    0.44295   0.80041   0.84893   1.000
    H28     H    0.23769   0.63964   0.99540   1.000
    H29     H    0.55885   0.77176   0.14116   1.000
    H30     H    0.56608   0.66276   0.09371   1.000
    H31     H    0.22445   0.38589   0.18268   1.000
    Zn32    Zn   0.97764   0.40768   0.57044   1.000
    H33     H    0.34829   0.34737   0.16559   1.000
    H34     H    0.55719   0.69959   0.34897   1.000
    H35     H    0.76225   0.86027   0.49542   1.000
    H36     H    0.44093   0.72824   0.64112   1.000
    H37     H    0.43376   0.83723   0.59367   1.000
    H38     H    0.77555   0.11410   0.68265   1.000
    H39     H    0.65173   0.15266   0.66550   1.000
    H40     H    0.05427   0.79959   0.34890   1.000
    H41     H    0.26104   0.64110   0.49523   1.000
    H42     H    0.93942   0.77248   0.64157   1.000
    H43     H    0.93282   0.66314   0.59453   1.000
    H44     H    0.27519   0.38749   0.68310   1.000
    H45     H    0.15189   0.34833   0.66510   1.000
    H46     H    0.94562   0.70041   0.84895   1.000
    H47     H    0.73891   0.85896   0.99517   1.000
    H48     H    0.06066   0.72747   0.14156   1.000
    H49     H    0.06722   0.83682   0.09454   1.000
    H50     H    0.72478   0.11256   0.18303   1.000
    H51     H    0.84808   0.15171   0.16504   1.000
    H52     H    0.55705   0.19959   0.15107   1.000
    H53     H    0.76230   0.36036   0.00463   1.000
    H54     H    0.44114   0.22825   0.85885   1.000
    H55     H    0.43391   0.33726   0.90630   1.000
    H56     H    0.77555   0.61409   0.81733   1.000
    H57     H    0.65172   0.65262   0.83442   1.000
    H58     H    0.44270   0.30039   0.65101   1.000
    H59     H    0.23768   0.13964   0.50462   1.000
    H60     H    0.55899   0.27176   0.35887   1.000
    H61     H    0.56614   0.16276   0.40630   1.000
    H62     H    0.22442   0.88584   0.31736   1.000
    H63     H    0.34824   0.84730   0.33446   1.000
    C64     C    0.96706   0.41648   0.74202   1.000
    C65     C    0.92393   0.51586   0.71929   1.000
    C66     C    0.03108   0.21914   0.47468   1.000
    C67     C    0.97324   0.19117   0.59133   1.000
    C68     C    0.79830   0.54685   0.40697   1.000
    C69     C    0.77434   0.42095   0.47779   1.000
    C70     C    0.03294   0.08351   0.24200   1.000
    C71     C    0.07606   0.98412   0.21927   1.000
    C72     C    0.96889   0.28084   0.97468   1.000
    C73     C    0.02676   0.30880   0.09130   1.000
    C74     C    0.20172   0.95312   0.90690   1.000
    C75     C    0.22567   0.07905   0.97778   1.000
    C76     C    0.46784   0.58400   0.75785   1.000
    C77     C    0.42277   0.48542   0.78037   1.000
    C78     C    0.52953   0.78070   0.02489   1.000
    C79     C    0.47096   0.80935   0.90861   1.000
    C80     C    0.29831   0.45187   0.09317   1.000
    C81     C    0.27353   0.57775   0.02246   1.000
    C82     C    0.53215   0.91601   0.25784   1.000
    C83     C    0.57723   0.01458   0.28036   1.000
    C84     C    0.47038   0.71929   0.52488   1.000
    C85     C    0.52910   0.69065   0.40862   1.000
    C86     C    0.70169   0.04812   0.59310   1.000
    C87     C    0.72644   0.92219   0.52240   1.000
    C88     C    0.03295   0.58348   0.25800   1.000
    C89     C    0.07607   0.48410   0.28070   1.000
    C90     C    0.96889   0.78082   0.52534   1.000
    C91     C    0.02670   0.80880   0.40868   1.000
    C92     C    0.20168   0.45317   0.59309   1.000
    C93     C    0.22563   0.57909   0.52229   1.000
    C94     C    0.96707   0.91645   0.75801   1.000
    C95     C    0.92393   0.01583   0.78073   1.000
    C96     C    0.03112   0.71915   0.02534   1.000
    C97     C    0.97324   0.69119   0.90872   1.000
    C98     C    0.79829   0.04688   0.09304   1.000
    C99     C    0.77433   0.92095   0.02223   1.000
    O100    O    0.97739   0.89609   0.68539   1.000
    O101    O    0.50744   0.35923   0.18708   1.000
    O102    O    0.58182   0.53270   0.14641   1.000
    O103    O    0.60433   0.56691   0.27688   1.000
    C104    C    0.53219   0.41601   0.24216   1.000
    C105    C    0.57725   0.51458   0.21965   1.000
    C106    C    0.47047   0.21931   0.97511   1.000
    C107    C    0.52904   0.19066   0.09140   1.000
    C108    C    0.70169   0.54813   0.90685   1.000
    C109    C    0.72647   0.42225   0.97750   1.000
    C110    C    0.46784   0.08399   0.74215   1.000
    C111    C    0.42276   0.98541   0.71964   1.000
    C112    C    0.52953   0.28069   0.47510   1.000
    C113    C    0.47080   0.30933   0.59130   1.000
    C114    C    0.29828   0.95183   0.40686   1.000
    C115    C    0.27351   0.07774   0.47755   1.000
    N116    N    0.99928   0.26395   0.54232   1.000
    N117    N    0.98663   0.10623   0.55797   1.000
    N118    N    0.02429   0.12290   0.48200   1.000
    N119    N    0.07083   0.26375   0.41041   1.000
    N120    N    0.86983   0.44792   0.49124   1.000
    N121    N    0.88590   0.52973   0.44628   1.000
    N122    N    0.72599   0.47984   0.42574   1.000
    N123    N    0.78273   0.62229   0.35746   1.000
    N124    N    0.00070   0.23602   0.04200   1.000
    N125    N    0.01334   0.39374   0.05796   1.000
    N126    N    0.97568   0.37708   0.98207   1.000
    N127    N    0.92911   0.23623   0.91042   1.000
    N128    N    0.13018   0.05207   0.99120   1.000
    N129    N    0.11412   0.97024   0.94620   1.000
    N130    N    0.27402   0.02015   0.92574   1.000
    N131    N    0.21731   0.87767   0.85747   1.000
    N132    N    0.49684   0.73623   0.95747   1.000
    N133    N    0.48519   0.89419   0.94190   1.000
    N134    N    0.52346   0.87697   0.01755   1.000
    N135    N    0.56947   0.73581   0.08907   1.000
    N136    N    0.36938   0.55133   0.00927   1.000
    N137    N    0.38607   0.46949   0.05420   1.000
    N138    N    0.22543   0.51851   0.07420   1.000
    N139    N    0.28285   0.37632   0.14257   1.000
    N140    N    0.50315   0.76377   0.45746   1.000
    N141    N    0.51485   0.60581   0.44190   1.000
    N142    N    0.47649   0.62302   0.51754   1.000
    N143    N    0.43033   0.76418   0.58903   1.000
    N144    N    0.63060   0.94863   0.50927   1.000
    N145    N    0.61393   0.03051   0.55418   1.000
    N146    N    0.77455   0.98144   0.57425   1.000
    N147    N    0.71717   0.12369   0.64252   1.000
    N148    N    0.00067   0.73602   0.45769   1.000
    N149    N    0.01330   0.89374   0.44203   1.000
    N150    N    0.97567   0.87707   0.51795   1.000
    N151    N    0.92916   0.73621   0.58961   1.000
    N152    N    0.13015   0.55208   0.50882   1.000
    N153    N    0.11409   0.47026   0.55377   1.000
    N154    N    0.27398   0.52021   0.57430   1.000
    N155    N    0.21727   0.37773   0.64261   1.000
    N156    N    0.99930   0.76396   0.95773   1.000
    N157    N    0.98666   0.60625   0.94206   1.000
    N158    N    0.02433   0.62291   0.01794   1.000
    N159    N    0.07090   0.76375   0.08960   1.000
    N160    N    0.86982   0.94793   0.00870   1.000
    N161    N    0.88589   0.02975   0.05370   1.000
    N162    N    0.72599   0.97985   0.07427   1.000
    N163    N    0.78270   0.12232   0.14254   1.000
    N164    N    0.50316   0.26378   0.04254   1.000
    N165    N    0.51481   0.10582   0.05810   1.000
    N166    N    0.47654   0.12304   0.98245   1.000
    N167    N    0.43052   0.26421   0.91093   1.000
    N168    N    0.63062   0.44867   0.99075   1.000
    N169    N    0.61393   0.53051   0.94582   1.000
    N170    N    0.77457   0.48148   0.92570   1.000
    N171    N    0.71716   0.62367   0.85745   1.000
    N172    N    0.49675   0.23622   0.54252   1.000
    N173    N    0.48508   0.39417   0.55809   1.000
    N174    N    0.52345   0.37697   0.48245   1.000
    N175    N    0.56957   0.23581   0.41090   1.000
    N176    N    0.36936   0.05132   0.49070   1.000
    N177    N    0.38604   0.96946   0.44582   1.000
    N178    N    0.22540   0.01849   0.42578   1.000
    N179    N    0.28280   0.87626   0.35748   1.000
    O180    O    0.99115   0.35918   0.68706   1.000
    O181    O    0.92002   0.53352   0.64597   1.000
    O182    O    0.89754   0.56905   0.77623   1.000
    O183    O    0.97738   0.39612   0.81460   1.000
    O184    O    0.00000   0.14081   0.18704   1.000
    O185    O    0.07999   0.96646   0.14594   1.000
    O186    O    0.10246   0.93093   0.27620   1.000
    O187    O    0.02262   0.10387   0.31463   1.000
    O188    O    0.49258   0.64078   0.81293   1.000
    O189    O    0.41819   0.46731   0.85361   1.000
    O190    O    0.39569   0.43309   0.72314   1.000
    O191    O    0.47894   0.60415   0.68525   1.000
    O192    O    0.50742   0.85922   0.31292   1.000
    O193    O    0.58180   0.03270   0.35360   1.000
    O194    O    0.60431   0.06690   0.22313   1.000
    O195    O    0.52104   0.89585   0.18524   1.000
    O196    O    0.00000   0.64079   0.31296   1.000
    O197    O    0.07998   0.46647   0.35407   1.000
    O198    O    0.10245   0.43088   0.22382   1.000
    O199    O    0.02265   0.60385   0.18538   1.000
    O200    O    0.99117   0.85916   0.81290   1.000
    O201    O    0.92002   0.03352   0.85405   1.000
    O202    O    0.89751   0.06899   0.72370   1.000
    O203    O    0.52109   0.39585   0.31476   1.000
    O204    O    0.49258   0.14077   0.68707   1.000
    O205    O    0.41819   0.96729   0.64640   1.000
    O206    O    0.39569   0.93310   0.77687   1.000
    O207    O    0.47895   0.10415   0.81475   1.000
loop_
    _geom_bond_atom_site_label_1
    _geom_bond_atom_site_label_2
    _geom_bond_distance
    _geom_bond_site_symmetry_2
    _ccdc_geom_bond_type
    H53    C109      1.08488  1_554   S
    H22    C75       1.08420  1_554   S
    N160   C99       1.32478      .   S
    N160   N161      1.39010  1_565   S
    N160   Zn9       2.02327  1_554   S
    N136   C81       1.32483      .   S
    N136   N137      1.39037      .   S
    N136   Zn3       2.03137  1_554   S
    N134   C78       1.35336      .   S
    N134   Zn6       2.06950      .   S
    N134   N133      1.39534  1_554   S
    N158   C96       1.35388      .   S
    N158   Zn8       2.07468      .   S
    N158   N157      1.39512  1_454   S
    C99    N162      1.36048      .   S
    C99    H47       1.08448  1_554   S
    C81    N138      1.35992      .   S
    C81    H28       1.08440  1_554   S
    C78    N135      1.35834      .   S
    C78    N132      1.36813  1_554   S
    C96    N159      1.35753      .   S
    C96    N156      1.36885  1_454   S
    N124   Zn1       2.08407      .   S
    N124   C73       1.35936      .   S
    N124   C72       1.36473  1_454   S
    N164   Zn11      2.08529      .   S
    N164   C107      1.35691      .   S
    N164   C106      1.36825  1_554   S
    N161   Zn1       2.00844  1_655   S
    N161   C98       1.34592      .   S
    N137   Zn11      2.01414      .   S
    N137   C80       1.34652      .   S
    N125   C73       1.32568      .   S
    N125   Zn8       2.00015      .   S
    N125   N126      1.39525  1_454   S
    N165   C107      1.32615      .   S
    N165   Zn6       2.01039  1_545   S
    N165   N166      1.39535  1_554   S
    Zn1    O185      2.29994  1_545   S
    Zn1    O184      2.10702      .   S
    Zn1    N128      2.02443  1_554   S
    Zn11   O102      2.29728      .   S
    Zn11   O101      2.09715      .   S
    Zn11   N168      2.02571  1_554   S
    N138   C80       1.36946      .   S
    N138   Zn8       2.04652      .   S
    N162   C98       1.36933  1_565   S
    N162   Zn6       2.03886      .   S
    N135   H30       1.02493      .   S
    N135   H29       1.02405      .   S
    N159   H49       1.02561      .   S
    N159   H48       1.02400      .   S
    C73    H21       1.08165      .   S
    C107   H52       1.08152      .   S
    C98    N163      1.36169      .   S
    C80    N139      1.36210      .   S
    Zn6    O195      2.03398      .   S
    Zn8    O199      2.03258      .   S
    N163   H51       1.02264      .   S
    N163   H50       1.03059      .   S
    N139   H33       1.02291      .   S
    N139   H31       1.03024      .   S
    O185   C71       1.26634      .   S
    O102   C105      1.26653      .   S
    O195   C82       1.26894      .   S
    O199   C88       1.26867      .   S
    O184   C70       1.30029      .   S
    O101   C104      1.26658      .   S
    C71    C70       1.54676  1_565   S
    C71    O186      1.26455      .   S
    C105   C104      1.54692      .   S
    C105   O103      1.26450      .   S
    O194   C83       1.26452      .   S
    O198   C89       1.26407      .   S
    C70    O187      1.26883      .   S
    C104   O203      1.26895      .   S
    C82    C83       1.54702  1_565   S
    C82    O192      1.26660      .   S
    C88    C89       1.54652      .   S
    C88    O196      1.30036      .   S
    C83    O193      1.26653      .   S
    C89    O197      1.26695      .   S
    O192   Zn5       2.09696      .   S
    O196   Zn7       2.10699      .   S
    O187   Zn2       2.03269      .   S
    O203   Zn12      2.03397      .   S
    H19    N123      1.03130      .   S
    H62    N179      1.03024      .   S
    H63    N179      1.02293      .   S
    H20    N123      1.02262      .   S
    H40    C91       1.08164      .   S
    H34    C85       1.08152      .   S
    O193   Zn5       2.29723  1_545   S
    O197   Zn7       2.29967      .   S
    N123   C68       1.36173      .   S
    N179   C114      1.36208      .   S
    H17    N119      1.02397      .   S
    H60    N175      1.02311      .   S
    Zn2    N178      2.04633      .   S
    Zn2    N149      2.00032  1_545   S
    Zn2    N118      2.07400      .   S
    Zn12   N122      2.03879      .   S
    Zn12   N141      2.01016      .   S
    Zn12   N174      2.06933      .   S
    H18    N119      1.02561      .   S
    H61    N175      1.02488      .   S
    C114   N178      1.36940  1_565   S
    C114   N177      1.34653      .   S
    C68    N122      1.36928      .   S
    C68    N121      1.34563      .   S
    C85    N141      1.32608      .   S
    C85    N140      1.35690      .   S
    C91    N149      1.32564      .   S
    C91    N148      1.35634      .   S
    N119   C66       1.35759      .   S
    N175   C112      1.35902      .   S
    N122   C69       1.36053      .   S
    N178   C115      1.36042      .   S
    Zn5    N177      2.01421      .   S
    Zn5    N140      2.08538      .   S
    Zn5    N144      2.02586      .   S
    Zn7    N121      2.00836  1_455   S
    Zn7    N148      2.08293      .   S
    Zn7    N152      2.02430      .   S
    N141   N142      1.39562      .   S
    N149   N150      1.39557  1_455   S
    N177   N176      1.39011  1_565   S
    N121   N120      1.38960      .   S
    N140   C84       1.36847      .   S
    N148   C90       1.36915  1_455   S
    C66    N118      1.35379      .   S
    C66    N116      1.36910  1_455   S
    C112   N174      1.35335      .   S
    C112   N172      1.36856      .   S
    C115   N176      1.32471      .   S
    C115   H59       1.08454      .   S
    C69    N120      1.32454      .   S
    C69    H16       1.08464      .   S
    N118   N117      1.39646  1_455   S
    N174   N173      1.39565      .   S
    N176   Zn13      2.02628      .   S
    N120   Zn32      2.02418      .   S
    H41    C93       1.08464      .   S
    H35    C87       1.08400      .   S
    N152   C93       1.32455      .   S
    N152   N153      1.38962      .   S
    N144   C87       1.32461      .   S
    N144   N145      1.39052  1_565   S
    N142   C84       1.35335      .   S
    N142   Zn4       2.06944      .   S
    N150   C90       1.35389      .   S
    N150   Zn10      2.07476      .   S
    C93    N154      1.36006      .   S
    C87    N146      1.36129      .   S
    C84    N143      1.35842      .   S
    C90    N151      1.35753      .   S
    N116   Zn32      2.08298      .   S
    N116   C67       1.35640      .   S
    N172   Zn13      2.08521      .   S
    N172   C113      1.35622      .   S
    N153   Zn32      2.00830  1_455   S
    N153   C92       1.34558      .   S
    N145   Zn13      2.01418      .   S
    N145   C86       1.34610      .   S
    N117   C67       1.32574      .   S
    N117   Zn10      2.00038  1_545   S
    N173   C113      1.32565      .   S
    N173   Zn4       2.01025      .   S
    Zn32   O181      2.29999      .   S
    Zn32   O180      2.09419      .   S
    Zn13   O205      2.29734  1_545   S
    Zn13   O204      2.09716      .   S
    N146   C86       1.36920  1_565   S
    N146   Zn10      2.04658      .   S
    N154   C92       1.36945      .   S
    N154   Zn4       2.03902      .   S
    N143   H37       1.02495      .   S
    N143   H36       1.02393      .   S
    N151   H43       1.02560      .   S
    N151   H42       1.02397      .   S
    C113   H58       1.08253      .   S
    C67    H15       1.08158      .   S
    C92    N155      1.36180      .   S
    C86    N147      1.36254      .   S
    Zn4    O191      2.03390      .   S
    Zn10   O100      2.03274      .   S
    N147   H39       1.02273      .   S
    N147   H38       1.03029      .   S
    N155   H45       1.02263      .   S
    N155   H44       1.03057      .   S
    O181   C65       1.26620      .   S
    O205   C111      1.26654      .   S
    O191   C76       1.26895      .   S
    O100   C94       1.26868      .   S
    O180   C64       1.26682      .   S
    O204   C110      1.26657      .   S
    C65    C64       1.54666      .   S
    C65    O182      1.26463      .   S
    C111   C110      1.54700  1_565   S
    C111   O206      1.26448      .   S
    O190   C77       1.26454      .   S
    O202   C95       1.26560      .   S
    C64    O183      1.26801      .   S
    C110   O207      1.26896      .   S
    C76    C77       1.54696      .   S
    C76    O188      1.26658      .   S
    C94    C95       1.54671  1_565   S
    C94    O200      1.26588      .   S
    C77    O189      1.26652      .   S
    C95    O201      1.26627      .   S
    O200   Zn9       2.09540      .   S
    O188   Zn3       2.08938      .   S
    O183   Zn0       2.03321      .   S
    O207   Zn14      2.03397      .   S
    H25    N131      1.03059      .   S
    H56    N171      1.03035      .   S
    H57    N171      1.02298      .   S
    H26    N131      1.02265      .   S
    H27    C79       1.08167      .   S
    H46    C97       1.08168      .   S
    O189   Zn3       2.29245      .   S
    O201   Zn9       2.30010  1_545   S
    N171   C108      1.36207      .   S
    N131   C74       1.36097      .   S
    H23    N127      1.02400      .   S
    H54    N167      1.02389      .   S
    Zn0    N170      2.04617      .   S
    Zn0    N157      2.00021      .   S
    Zn0    N126      2.07470      .   S
    Zn14   N130      2.03889      .   S
    Zn14   N133      2.01047  1_545   S
    Zn14   N166      2.06946      .   S
    H24    N127      1.02560      .   S
    H55    N167      1.02493      .   S
    C108   N170      1.36899      .   S
    C108   N169      1.34651      .   S
    C74    N130      1.36963  1_565   S
    C74    N129      1.34559      .   S
    C79    N133      1.32610      .   S
    C79    N132      1.35689      .   S
    C97    N157      1.32569      .   S
    C97    N156      1.35636      .   S
    N127   C72       1.35753      .   S
    N167   C106      1.35835      .   S
    N170   C109      1.36053      .   S
    N130   C75       1.36048      .   S
    Zn3    N169      2.01533      .   S
    Zn3    N132      2.08726      .   S
    Zn9    N129      2.00820  1_655   S
    Zn9    N156      2.08299      .   S
    N169   N168      1.39036      .   S
    N129   N128      1.39011  1_565   S
    C72    N126      1.35386      .   S
    C106   N166      1.35336      .   S
    C109   N168      1.32498      .   S
    C75    N128      1.32445      .   S
