# CIF file generated by openbabel 2.4.90, see http://openbabel.sf.net
data_I
_chemical_name_common ''
_cell_length_a 13.075
_cell_length_b 13.975
_cell_length_c 16.924
_cell_angle_alpha 90.001
_cell_angle_beta 90
_cell_angle_gamma 89.9
_space_group_name_H-M_alt 'P 1'
_space_group_name_Hall 'P 1'
loop_
    _symmetry_equiv_pos_as_xyz
    x,y,z
loop_
    _atom_site_label
    _atom_site_type_symbol
    _atom_site_fract_x
    _atom_site_fract_y
    _atom_site_fract_z
    _atom_site_occupancy
    Zr0     Zr   0.97764   0.40768   0.57044   1.000
    Zr1     Zr   0.92844   0.48241   0.90369   1.000
    Zr2     Zr   0.02236   0.09231   0.07042   1.000
    Zr3     Zr   0.07154   0.01758   0.40368   1.000
    Zr4     Zr   0.47622   0.59223   0.92900   1.000
    Zr5     Zr   0.42734   0.51938   0.59612   1.000
    Zr6     Zr   0.52377   0.90777   0.42947   1.000
    Zr7     Zr   0.57264   0.98063   0.09611   1.000
    Zr8     Zr   0.02236   0.59230   0.42958   1.000
    Zr9     Zr   0.07156   0.51758   0.09632   1.000
    Zr10    Zr   0.97765   0.90768   0.92959   1.000
    Zr11    Zr   0.92844   0.98238   0.59635   1.000
    Zr12    Zr   0.52378   0.40778   0.07052   1.000
    Zr13    Zr   0.57265   0.48062   0.40391   1.000
    Zr14    Zr   0.47621   0.09222   0.57051   1.000
    Zr15    Zr   0.42737   0.01938   0.90389   1.000
    N16     N    0.20566   0.48105   0.58203   1.000
    O17     O    0.12576   0.46001   0.57207   1.000
    O18     O    0.27816   0.50042   0.58362   1.000
    O19     O    0.14096   0.52662   0.52562   1.000
    N20     N    0.20570   0.98101   0.91800   1.000
    O21     O    0.12579   0.95998   0.92795   1.000
    O22     O    0.27819   0.00039   0.91641   1.000
    O23     O    0.14098   0.02660   0.97441   1.000
    N24     N    0.01767   0.71465   0.00294   1.000
    O25     O    0.00307   0.77524   0.97330   1.000
    O26     O    0.98761   0.62949   0.96291   1.000
    O27     O    0.03281   0.64245   0.03003   1.000
    N28     N    0.70600   0.52020   0.91783   1.000
    O29     O    0.77875   0.50107   0.91626   1.000
    O30     O    0.62554   0.54078   0.92762   1.000
    O31     O    0.64160   0.47421   0.97423   1.000
    N32     N    0.05235   0.53493   0.26915   1.000
    O33     O    0.04973   0.54782   0.20500   1.000
    N34     N    0.48402   0.71464   0.50258   1.000
    O35     O    0.51389   0.62893   0.46274   1.000
    O36     O    0.49874   0.77520   0.47302   1.000
    O37     O    0.46797   0.64292   0.52970   1.000
    N38     N    0.94618   0.46504   0.73086   1.000
    O39     O    0.94954   0.45215   0.79500   1.000
    N40     N    0.55402   0.46421   0.23116   1.000
    O41     O    0.55044   0.45122   0.29525   1.000
    N42     N    0.29397   0.97976   0.41785   1.000
    O43     O    0.22122   0.99890   0.41629   1.000
    O44     O    0.35838   0.02577   0.47423   1.000
    O45     O    0.37444   0.95919   0.42775   1.000
    N46     N    0.51593   0.78535   0.00259   1.000
    O47     O    0.53199   0.85708   0.02971   1.000
    O48     O    0.48610   0.87107   0.96274   1.000
    O49     O    0.50123   0.72479   0.97291   1.000
    N50     N    0.79431   0.01899   0.08197   1.000
    O51     O    0.72181   0.99962   0.08358   1.000
    O52     O    0.87422   0.04001   0.07201   1.000
    O53     O    0.85902   0.97340   0.02556   1.000
    N54     N    0.79433   0.51897   0.41802   1.000
    O55     O    0.85903   0.47339   0.47443   1.000
    O56     O    0.72182   0.49960   0.41642   1.000
    O57     O    0.87423   0.53999   0.42798   1.000
    N58     N    0.70599   0.02018   0.58214   1.000
    O59     O    0.64159   0.97419   0.52576   1.000
    O60     O    0.62553   0.04077   0.57224   1.000
    O61     O    0.77874   0.00104   0.58372   1.000
    N62     N    0.98232   0.78532   0.50292   1.000
    O63     O    0.96719   0.85752   0.53004   1.000
    O64     O    0.01237   0.87049   0.46289   1.000
    O65     O    0.99692   0.72474   0.47328   1.000
    N66     N    0.48407   0.21466   0.99742   1.000
    O67     O    0.49877   0.27522   0.02697   1.000
    O68     O    0.46801   0.14293   0.97029   1.000
    O69     O    0.51390   0.12894   0.03726   1.000
    N70     N    0.05235   0.03495   0.23085   1.000
    O71     O    0.04971   0.04784   0.29500   1.000
    N72     N    0.51589   0.28534   0.49739   1.000
    O73     O    0.48605   0.37106   0.53725   1.000
    O74     O    0.50119   0.22478   0.52695   1.000
    O75     O    0.53197   0.35707   0.47029   1.000
    N76     N    0.94618   0.96501   0.76913   1.000
    O77     O    0.94955   0.95212   0.70500   1.000
    N78     N    0.29400   0.47980   0.08217   1.000
    O79     O    0.37446   0.45922   0.07227   1.000
    O80     O    0.22125   0.49892   0.08372   1.000
    O81     O    0.35840   0.52579   0.02565   1.000
    N82     N    0.01764   0.21465   0.49708   1.000
    O83     O    0.98759   0.12948   0.53712   1.000
    O84     O    0.00305   0.27523   0.52673   1.000
    O85     O    0.03278   0.14244   0.46996   1.000
    N86     N    0.98233   0.28533   0.99705   1.000
    O87     O    0.01239   0.37050   0.03709   1.000
    O88     O    0.99693   0.22475   0.02663   1.000
    O89     O    0.96720   0.35754   0.96996   1.000
    N90     N    0.44600   0.53579   0.76886   1.000
    O91     O    0.44957   0.54878   0.70477   1.000
    N92     N    0.44600   0.03579   0.73115   1.000
    O93     O    0.44958   0.04878   0.79523   1.000
    N94     N    0.55399   0.96421   0.26885   1.000
    O95     O    0.55042   0.95123   0.20476   1.000
    O96     O    0.54411   0.44554   0.17489   1.000
    O97     O    0.45590   0.55447   0.82500   1.000
    O98     O    0.54409   0.94554   0.32511   1.000
    O99     O    0.45590   0.05446   0.67488   1.000
    O100    O    0.95640   0.44602   0.67467   1.000
    O101    O    0.04176   0.05396   0.17465   1.000
    O102    O    0.04176   0.55395   0.32535   1.000
    O103    O    0.95640   0.94601   0.82533   1.000
loop_
    _geom_bond_atom_site_label_1
    _geom_bond_atom_site_label_2
    _geom_bond_distance
    _geom_bond_site_symmetry_2
    _ccdc_geom_bond_type
    N16    O17       1.09875      .   S
    Zr0    O17       2.07159  1_655   S
    N16    O18       0.98667      .   S
    Zr5    O18       1.98029      .   S
    N16    O19       1.42513      .   S
    Zr8    O19       2.42563      .   S
    N20    O21       1.09876      .   S
    Zr10   O21       2.07167  1_655   S
    N20    O22       0.98668  1_565   S
    Zr15   O22       1.98026      .   S
    N20    O23       1.42518  1_565   S
    Zr2    O23       2.42574  1_554   S
    N24    O25       1.00216  1_554   S
    Zr10   O25       2.02024  1_655   S
    N24    O26       1.42533  1_454   S
    Zr1    O26       2.41525      .   S
    N24    O27       1.12561      .   S
    Zr9    O27       2.13478      .   S
    N28    O29       0.98798      .   S
    Zr1    O29       1.98547      .   S
    N28    O30       1.10270      .   S
    Zr4    O30       2.07944      .   S
    N28    O31       1.42659      .   S
    Zr12   O31       2.42811  1_554   S
    N32    O33       1.10110      .   S
    Zr9    O33       1.90861      .   S
    N34    O35       1.42834      .   S
    Zr13   O35       2.42317      .   S
    N34    O36       1.00208      .   S
    Zr6    O36       2.02102      .   S
    N34    O37       1.12258      .   S
    Zr5    O37       2.12830      .   S
    N38    O39       1.10124      .   S
    Zr1    O39       1.90733      .   S
    N40    O41       1.10074      .   S
    Zr13   O41       1.90669      .   S
    N42    O43       0.98798      .   S
    Zr3    O43       1.98549  1_545   S
    N42    O44       1.42645  1_565   S
    Zr14   O44       2.42825      .   S
    N42    O45       1.10301      .   S
    Zr6    O45       2.07955      .   S
    N46    O47       1.12260      .   S
    Zr7    O47       2.12836      .   S
    N46    O48       1.42833  1_554   S
    Zr15   O48       2.42328  1_545   S
    N46    O49       1.00303  1_554   S
    Zr4    O49       2.02320      .   S
    N50    O51       0.98668  1_545   S
    Zr7    O51       1.98027      .   S
    N50    O52       1.09877      .   S
    Zr2    O52       2.07164  1_455   S
    N50    O53       1.42530  1_545   S
    Zr10   O53       2.42526  1_556   S
    N54    O55       1.42515      .   S
    Zr0    O55       2.42558      .   S
    N54    O56       0.98671      .   S
    Zr13   O56       1.98027      .   S
    N54    O57       1.09873      .   S
    Zr8    O57       2.07157  1_455   S
    N58    O59       1.42642  1_545   S
    Zr6    O59       2.42800      .   S
    N58    O60       1.10298      .   S
    Zr14   O60       2.07953      .   S
    N58    O61       0.98801      .   S
    Zr11   O61       1.98564  1_565   S
    N62    O63       1.12567      .   S
    Zr11   O63       2.13487      .   S
    N62    O64       1.42541  1_655   S
    Zr3    O64       2.41535  1_545   S
    N62    O65       1.00213      .   S
    Zr8    O65       2.02014  1_455   S
    N66    O67       1.00200  1_556   S
    Zr12   O67       2.02089      .   S
    N66    O68       1.12260      .   S
    Zr15   O68       2.12833      .   S
    N66    O69       1.42830  1_556   S
    Zr7    O69       2.42323  1_565   S
    N70    O71       1.10111      .   S
    Zr3    O71       1.90861      .   S
    N72    O73       1.42844      .   S
    Zr5    O73       2.42333      .   S
    N72    O74       1.00209      .   S
    Zr14   O74       2.02092      .   S
    N72    O75       1.12255      .   S
    Zr13   O75       2.12821      .   S
    N76    O77       1.10104      .   S
    Zr11   O77       1.90677      .   S
    N78    O79       1.10299      .   S
    Zr12   O79       2.07951      .   S
    N78    O80       0.98797      .   S
    Zr9    O80       1.98554      .   S
    N78    O81       1.42790      .   S
    Zr4    O81       2.43227  1_556   S
    N82    O83       1.42547  1_455   S
    Zr11   O83       2.41547  1_565   S
    N82    O84       1.00220      .   S
    Zr0    O84       2.02022  1_655   S
    N82    O85       1.12574      .   S
    Zr3    O85       2.13466      .   S
    N86    O87       1.42545  1_656   S
    Zr9    O87       2.41531      .   S
    N86    O88       1.00166  1_556   S
    Zr2    O88       2.02073  1_455   S
    N86    O89       1.12554      .   S
    Zr1    O89       2.13470      .   S
    N90    O91       1.10069      .   S
    Zr5    O91       1.90655      .   S
    N92    O93       1.10070      .   S
    Zr15   O93       1.90660      .   S
    N94    O95       1.10068      .   S
    Zr7    O95       1.90657      .   S
    Zr12   O96       1.86277      .   S
    N40    O96       0.99580      .   S
    Zr4    O97       1.85678      .   S
    N90    O97       0.99379      .   S
    Zr6    O98       1.86261      .   S
    N94    O98       0.99575      .   S
    Zr14   O99       1.86275      .   S
    N92    O99       0.99579      .   S
    Zr0    O100      1.86425      .   S
    N38    O100      0.99634      .   S
    N70    O101      0.99706      .   S
    Zr2    O101      1.86086      .   S
    Zr8    O102      1.86084      .   S
    N32    O102      0.99709      .   S
    Zr10   O103      1.86466      .   S
    N76    O103      0.99645      .   S
