# CIF file generated by openbabel 2.4.90, see http://openbabel.sf.net
data_I
_chemical_name_common ''
_cell_length_a 13.075
_cell_length_b 13.975
_cell_length_c 16.924
_cell_angle_alpha 90.001
_cell_angle_beta 90
_cell_angle_gamma 89.9
_space_group_name_H-M_alt 'P 1'
_space_group_name_Hall 'P 1'
loop_
    _symmetry_equiv_pos_as_xyz
    x,y,z
loop_
    _atom_site_label
    _atom_site_type_symbol
    _atom_site_fract_x
    _atom_site_fract_y
    _atom_site_fract_z
    _atom_site_occupancy
    Zr0     Zr   0.97764   0.40768   0.57044   1.000
    Zr1     Zr   0.92844   0.48241   0.90369   1.000
    Zr2     Zr   0.02236   0.09231   0.07042   1.000
    Zr3     Zr   0.07154   0.01758   0.40368   1.000
    Zr4     Zr   0.47622   0.59223   0.92900   1.000
    Zr5     Zr   0.42734   0.51938   0.59612   1.000
    Zr6     Zr   0.52377   0.90777   0.42947   1.000
    Zr7     Zr   0.57264   0.98063   0.09611   1.000
    Zr8     Zr   0.02236   0.59230   0.42958   1.000
    Zr9     Zr   0.07156   0.51758   0.09632   1.000
    Zr10    Zr   0.97765   0.90768   0.92959   1.000
    Zr11    Zr   0.92844   0.98238   0.59635   1.000
    Zr12    Zr   0.52378   0.40778   0.07052   1.000
    Zr13    Zr   0.57265   0.48062   0.40391   1.000
    Zr14    Zr   0.47621   0.09222   0.57051   1.000
    Zr15    Zr   0.42737   0.01938   0.90389   1.000
    N16     N    0.20566   0.48105   0.58203   1.000
    O17     O    0.12576   0.46001   0.57207   1.000
    O18     O    0.27816   0.50042   0.58362   1.000
    O19     O    0.14096   0.52662   0.52562   1.000
    N20     N    0.20570   0.98101   0.91800   1.000
    O21     O    0.12579   0.95998   0.92795   1.000
    O22     O    0.27819   0.00039   0.91641   1.000
    O23     O    0.14098   0.02660   0.97441   1.000
    N24     N    0.01767   0.71465   0.00294   1.000
    O25     O    0.00307   0.77524   0.97330   1.000
    O26     O    0.98761   0.62949   0.96291   1.000
    O27     O    0.03281   0.64245   0.03003   1.000
    N28     N    0.70600   0.52020   0.91783   1.000
    O29     O    0.77875   0.50107   0.91626   1.000
    O30     O    0.62554   0.54078   0.92762   1.000
    O31     O    0.64160   0.47421   0.97423   1.000
    N32     N    0.05235   0.53493   0.26915   1.000
    O33     O    0.05176   0.53215   0.33049   1.000
    O34     O    0.03177   0.57574   0.32021   1.000
    O35     O    0.04973   0.54782   0.20500   1.000
    N36     N    0.48402   0.71464   0.50258   1.000
    O37     O    0.51389   0.62893   0.46274   1.000
    O38     O    0.49874   0.77520   0.47302   1.000
    O39     O    0.46797   0.64292   0.52970   1.000
    N40     N    0.94618   0.46504   0.73086   1.000
    O41     O    0.94954   0.45215   0.79500   1.000
    O42     O    0.94750   0.46782   0.66953   1.000
    O43     O    0.96529   0.42423   0.67981   1.000
    N44     N    0.55402   0.46421   0.23116   1.000
    O45     O    0.53481   0.42386   0.17998   1.000
    O46     O    0.55341   0.46722   0.16981   1.000
    O47     O    0.55044   0.45122   0.29525   1.000
    N48     N    0.29397   0.97976   0.41785   1.000
    O49     O    0.22122   0.99890   0.41629   1.000
    O50     O    0.35838   0.02577   0.47423   1.000
    O51     O    0.37444   0.95919   0.42775   1.000
    N52     N    0.51593   0.78535   0.00259   1.000
    O53     O    0.53199   0.85708   0.02971   1.000
    O54     O    0.48610   0.87107   0.96274   1.000
    O55     O    0.50123   0.72479   0.97291   1.000
    N56     N    0.79431   0.01899   0.08197   1.000
    O57     O    0.72181   0.99962   0.08358   1.000
    O58     O    0.87422   0.04001   0.07201   1.000
    O59     O    0.85902   0.97340   0.02556   1.000
    N60     N    0.79433   0.51897   0.41802   1.000
    O61     O    0.85903   0.47339   0.47443   1.000
    O62     O    0.72182   0.49960   0.41642   1.000
    O63     O    0.87423   0.53999   0.42798   1.000
    N64     N    0.70599   0.02018   0.58214   1.000
    O65     O    0.64159   0.97419   0.52576   1.000
    O66     O    0.62553   0.04077   0.57224   1.000
    O67     O    0.77874   0.00104   0.58372   1.000
    N68     N    0.98232   0.78532   0.50292   1.000
    O69     O    0.96719   0.85752   0.53004   1.000
    O70     O    0.01237   0.87049   0.46289   1.000
    O71     O    0.99692   0.72474   0.47328   1.000
    N72     N    0.48407   0.21466   0.99742   1.000
    O73     O    0.49877   0.27522   0.02697   1.000
    O74     O    0.46801   0.14293   0.97029   1.000
    O75     O    0.51390   0.12894   0.03726   1.000
    N76     N    0.05235   0.03495   0.23085   1.000
    O77     O    0.04971   0.04784   0.29500   1.000
    O78     O    0.03176   0.07575   0.17979   1.000
    O79     O    0.05176   0.03217   0.16951   1.000
    N80     N    0.51589   0.28534   0.49739   1.000
    O81     O    0.48605   0.37106   0.53725   1.000
    O82     O    0.50119   0.22478   0.52695   1.000
    O83     O    0.53197   0.35707   0.47029   1.000
    N84     N    0.94618   0.96501   0.76913   1.000
    O85     O    0.96529   0.92421   0.82019   1.000
    O86     O    0.94751   0.96780   0.83047   1.000
    O87     O    0.94955   0.95212   0.70500   1.000
    N88     N    0.29400   0.47980   0.08217   1.000
    O89     O    0.37446   0.45922   0.07227   1.000
    O90     O    0.22125   0.49892   0.08372   1.000
    O91     O    0.35840   0.52579   0.02565   1.000
    N92     N    0.01764   0.21465   0.49708   1.000
    O93     O    0.98759   0.12948   0.53712   1.000
    O94     O    0.00305   0.27523   0.52673   1.000
    O95     O    0.03278   0.14244   0.46996   1.000
    N96     N    0.98233   0.28533   0.99705   1.000
    O97     O    0.01239   0.37050   0.03709   1.000
    O98     O    0.99693   0.22475   0.02663   1.000
    O99     O    0.96720   0.35754   0.96996   1.000
    N100    N    0.44600   0.53579   0.76886   1.000
    O101    O    0.44660   0.53278   0.83008   1.000
    O102    O    0.44957   0.54878   0.70477   1.000
    O103    O    0.46520   0.57615   0.81991   1.000
    N104    N    0.44600   0.03579   0.73115   1.000
    O105    O    0.44660   0.03277   0.66980   1.000
    O106    O    0.46520   0.07614   0.67997   1.000
    O107    O    0.44958   0.04878   0.79523   1.000
    N108    N    0.55399   0.96421   0.26885   1.000
    O109    O    0.53479   0.92385   0.32002   1.000
    O110    O    0.55339   0.96722   0.33019   1.000
    O111    O    0.55042   0.95123   0.20476   1.000
loop_
    _geom_bond_atom_site_label_1
    _geom_bond_atom_site_label_2
    _geom_bond_distance
    _geom_bond_site_symmetry_2
    _ccdc_geom_bond_type
    N16    O17       1.09875      .   S
    Zr0    O17       2.07159  1_655   S
    N16    O18       0.98667      .   S
    Zr5    O18       1.98029      .   S
    N16    O19       1.42513      .   S
    Zr8    O19       2.42563      .   S
    N20    O21       1.09876      .   S
    Zr10   O21       2.07167  1_655   S
    N20    O22       0.98668  1_565   S
    Zr15   O22       1.98026      .   S
    N20    O23       1.42518  1_565   S
    Zr2    O23       2.42574  1_554   S
    N24    O25       1.00216  1_554   S
    Zr10   O25       2.02024  1_655   S
    N24    O26       1.42533  1_454   S
    Zr1    O26       2.41525      .   S
    N24    O27       1.12561      .   S
    Zr9    O27       2.13478      .   S
    N28    O29       0.98798      .   S
    Zr1    O29       1.98547      .   S
    N28    O30       1.10270      .   S
    Zr4    O30       2.07944      .   S
    N28    O31       1.42659      .   S
    Zr12   O31       2.42811  1_554   S
    N32    O33       1.03879      .   S
    Zr8    O33       1.91453      .   S
    N32    O34       1.06948      .   S
    Zr8    O34       1.86937      .   S
    N32    O35       1.10110      .   S
    Zr9    O35       1.90861      .   S
    N36    O37       1.42834      .   S
    Zr13   O37       2.42317      .   S
    N36    O38       1.00208      .   S
    Zr6    O38       2.02102      .   S
    N36    O39       1.12258      .   S
    Zr5    O39       2.12830      .   S
    N40    O41       1.10124      .   S
    Zr1    O41       1.90733      .   S
    N40    O42       1.03879      .   S
    Zr0    O42       1.91650      .   S
    N40    O43       1.06475      .   S
    Zr0    O43       1.87225      .   S
    N44    O45       1.06385      .   S
    Zr12   O45       1.87164      .   S
    N44    O46       1.03910      .   S
    Zr12   O46       1.91442      .   S
    N44    O47       1.10074      .   S
    Zr13   O47       1.90669      .   S
    N48    O49       0.98798      .   S
    Zr3    O49       1.98549  1_545   S
    N48    O50       1.42645  1_565   S
    Zr14   O50       2.42825      .   S
    N48    O51       1.10301      .   S
    Zr6    O51       2.07955      .   S
    N52    O53       1.12260      .   S
    Zr7    O53       2.12836      .   S
    N52    O54       1.42833  1_554   S
    Zr15   O54       2.42328  1_545   S
    N52    O55       1.00303  1_554   S
    Zr4    O55       2.02320      .   S
    N56    O57       0.98668  1_545   S
    Zr7    O57       1.98027      .   S
    N56    O58       1.09877      .   S
    Zr2    O58       2.07164  1_455   S
    N56    O59       1.42530  1_545   S
    Zr10   O59       2.42526  1_556   S
    N60    O61       1.42515      .   S
    Zr0    O61       2.42558      .   S
    N60    O62       0.98671      .   S
    Zr13   O62       1.98027      .   S
    N60    O63       1.09873      .   S
    Zr8    O63       2.07157  1_455   S
    N64    O65       1.42642  1_545   S
    Zr6    O65       2.42800      .   S
    N64    O66       1.10298      .   S
    Zr14   O66       2.07953      .   S
    N64    O67       0.98801      .   S
    Zr11   O67       1.98564  1_565   S
    N68    O69       1.12567      .   S
    Zr11   O69       2.13487      .   S
    N68    O70       1.42541  1_655   S
    Zr3    O70       2.41535  1_545   S
    N68    O71       1.00213      .   S
    Zr8    O71       2.02014  1_455   S
    N72    O73       1.00200  1_556   S
    Zr12   O73       2.02089      .   S
    N72    O74       1.12260      .   S
    Zr15   O74       2.12833      .   S
    N72    O75       1.42830  1_556   S
    Zr7    O75       2.42323  1_565   S
    N76    O77       1.10111      .   S
    Zr3    O77       1.90861      .   S
    N76    O78       1.06948      .   S
    Zr2    O78       1.86938      .   S
    N76    O79       1.03876      .   S
    Zr2    O79       1.91457      .   S
    N80    O81       1.42844      .   S
    Zr5    O81       2.42333      .   S
    N80    O82       1.00209      .   S
    Zr14   O82       2.02092      .   S
    N80    O83       1.12255      .   S
    Zr13   O83       2.12821      .   S
    N84    O85       1.06473      .   S
    Zr10   O85       1.87283      .   S
    N84    O86       1.03908      .   S
    Zr10   O86       1.91674      .   S
    N84    O87       1.10104      .   S
    Zr11   O87       1.90677      .   S
    N88    O89       1.10299      .   S
    Zr12   O89       2.07951      .   S
    N88    O90       0.98797      .   S
    Zr9    O90       1.98554      .   S
    N88    O91       1.42790      .   S
    Zr4    O91       2.43227  1_556   S
    N92    O93       1.42547  1_455   S
    Zr11   O93       2.41547  1_565   S
    N92    O94       1.00220      .   S
    Zr0    O94       2.02022  1_655   S
    N92    O95       1.12574      .   S
    Zr3    O95       2.13466      .   S
    N96    O97       1.42545  1_656   S
    Zr9    O97       2.41531      .   S
    N96    O98       1.00166  1_556   S
    Zr2    O98       2.02073  1_455   S
    N96    O99       1.12554      .   S
    Zr1    O99       2.13470      .   S
    N100   O101      1.03703      .   S
    Zr4    O101      1.90885      .   S
    N100   O102      1.10069      .   S
    Zr5    O102      1.90655      .   S
    N100   O103      1.06211      .   S
    Zr4    O103      1.86543      .   S
    N104   O105      1.03910      .   S
    Zr14   O105      1.91442      .   S
    N104   O106      1.06384      .   S
    Zr14   O106      1.87163      .   S
    N104   O107      1.10070      .   S
    Zr15   O107      1.90660      .   S
    N108   O109      1.06381      .   S
    Zr6    O109      1.87148      .   S
    N108   O110      1.03906      .   S
    Zr6    O110      1.91429      .   S
    N108   O111      1.10068      .   S
    Zr7    O111      1.90657      .   S
