# CIF file generated by openbabel 2.4.90, see http://openbabel.sf.net
data_I
_chemical_name_common ''
_cell_length_a 15.295
_cell_length_b 19.779
_cell_length_c 15.02
_cell_angle_alpha 109.185
_cell_angle_beta 100.984
_cell_angle_gamma 90.011
_space_group_name_H-M_alt 'P 1'
_space_group_name_Hall 'P 1'
loop_
    _symmetry_equiv_pos_as_xyz
    x,y,z
loop_
    _atom_site_label
    _atom_site_type_symbol
    _atom_site_fract_x
    _atom_site_fract_y
    _atom_site_fract_z
    _atom_site_occupancy
    H0      H    0.41390   0.22213   0.66700   1.000
    H1      H    0.41390   0.72211   0.66739   1.000
    H2      H    0.91389   0.22212   0.66739   1.000
    H3      H    0.91389   0.72211   0.66739   1.000
    H4      H    0.37532   0.28360   0.82584   1.000
    H5      H    0.37531   0.78359   0.82584   1.000
    H6      H    0.87531   0.28360   0.82584   1.000
    H7      H    0.87530   0.78358   0.82580   1.000
    H8      H    0.44015   0.48584   0.79263   1.000
    H9      H    0.44015   0.98582   0.79260   1.000
    H10     H    0.94014   0.48583   0.79263   1.000
    H11     H    0.94014   0.98582   0.79263   1.000
    H12     H    0.47664   0.41482   0.63354   1.000
    H13     H    0.47664   0.91480   0.63350   1.000
    H14     H    0.97663   0.41482   0.63354   1.000
    H15     H    0.97663   0.91480   0.63354   1.000
    H16     H    0.33590   0.38835   0.33259   1.000
    H17     H    0.33590   0.88834   0.33259   1.000
    H18     H    0.83589   0.38835   0.33259   1.000
    H19     H    0.83589   0.88834   0.33259   1.000
    H20     H    0.37440   0.37057   0.17407   1.000
    H21     H    0.37440   0.87056   0.17407   1.000
    H22     H    0.87440   0.37057   0.17407   1.000
    H23     H    0.87440   0.87056   0.17407   1.000
    H24     H    0.31008   0.08945   0.20716   1.000
    H25     H    0.31008   0.58944   0.20710   1.000
    H26     H    0.81008   0.08945   0.20716   1.000
    H27     H    0.81007   0.58944   0.20710   1.000
    H28     H    0.27368   0.09802   0.36635   1.000
    H29     H    0.27367   0.59801   0.36635   1.000
    H30     H    0.77367   0.09802   0.36635   1.000
    H31     H    0.77367   0.59801   0.36635   1.000
    H32     H    0.08613   0.27790   0.33264   1.000
    H33     H    0.08613   0.77789   0.33264   1.000
    H34     H    0.58613   0.27790   0.33264   1.000
    H35     H    0.58612   0.77789   0.33264   1.000
    H36     H    0.12473   0.21643   0.17420   1.000
    H37     H    0.12473   0.71642   0.17420   1.000
    H38     H    0.62472   0.21643   0.17420   1.000
    H39     H    0.62471   0.71642   0.17420   1.000
    H40     H    0.05990   0.01419   0.20741   1.000
    H41     H    0.05989   0.51418   0.20741   1.000
    H42     H    0.55989   0.01419   0.20741   1.000
    H43     H    0.55989   0.51418   0.20741   1.000
    H44     H    0.02340   0.08521   0.36600   1.000
    H45     H    0.02340   0.58520   0.36649   1.000
    H46     H    0.52339   0.08521   0.36600   1.000
    H47     H    0.52339   0.58520   0.36600   1.000
    H48     H    0.16414   0.11167   0.66740   1.000
    H49     H    0.16414   0.61166   0.66740   1.000
    H50     H    0.66413   0.11167   0.66745   1.000
    H51     H    0.66413   0.61166   0.66740   1.000
    H52     H    0.12564   0.12945   0.82597   1.000
    H53     H    0.12563   0.62944   0.82597   1.000
    H54     H    0.62563   0.12945   0.82597   1.000
    H55     H    0.62563   0.62944   0.82597   1.000
    H56     H    0.18996   0.41057   0.79280   1.000
    H57     H    0.18996   0.91056   0.79280   1.000
    H58     H    0.68996   0.41057   0.79288   1.000
    H59     H    0.68995   0.91056   0.79288   1.000
    H60     H    0.22637   0.40200   0.63369   1.000
    H61     H    0.22636   0.90199   0.63369   1.000
    H62     H    0.72636   0.40200   0.63369   1.000
    H63     H    0.72635   0.90199   0.63369   1.000
    C64     C    0.41985   0.28046   0.69790   1.000
    C65     C    0.41985   0.78045   0.69795   1.000
    C66     C    0.91984   0.28046   0.69795   1.000
    C67     C    0.91984   0.78045   0.69795   1.000
    C68     C    0.39866   0.31544   0.78690   1.000
    C69     C    0.39865   0.81543   0.78690   1.000
    C70     C    0.89864   0.31544   0.78690   1.000
    C71     C    0.89864   0.81543   0.78690   1.000
    C72     C    0.40708   0.39070   0.82440   1.000
    C73     C    0.40708   0.89068   0.82440   1.000
    C74     C    0.90707   0.39070   0.82442   1.000
    C75     C    0.90707   0.89068   0.82440   1.000
    C76     C    0.43411   0.42746   0.76750   1.000
    C77     C    0.43411   0.92744   0.76750   1.000
    C78     C    0.93410   0.42745   0.76751   1.000
    C79     C    0.93410   0.92744   0.76751   1.000
    C80     C    0.45443   0.38829   0.67931   1.000
    C81     C    0.45443   0.88827   0.67931   1.000
    C82     C    0.95442   0.38828   0.67931   1.000
    C83     C    0.95442   0.88827   0.67931   1.000
    C84     C    0.38925   0.42935   0.91976   1.000
    C85     C    0.38925   0.92934   0.91976   1.000
    C86     C    0.88924   0.42935   0.91976   1.000
    C87     C    0.88924   0.92934   0.91976   1.000
    C88     C    0.30549   0.32504   0.44537   1.000
    C89     C    0.30549   0.82502   0.44537   1.000
    C90     C    0.80548   0.32504   0.44530   1.000
    C91     C    0.80548   0.82502   0.44537   1.000
    S92     S    0.37491   0.38582   0.99991   1.000
    S93     S    0.37490   0.88581   0.99991   1.000
    S94     S    0.87488   0.38582   0.99990   1.000
    C95     C    0.33006   0.43141   0.30200   1.000
    C96     C    0.33005   0.93140   0.30200   1.000
    C97     C    0.83004   0.43141   0.30200   1.000
    C98     C    0.83005   0.93140   0.30200   1.000
    C99     C    0.35120   0.42190   0.21300   1.000
    C100    C    0.35120   0.92189   0.21300   1.000
    C101    C    0.85119   0.42190   0.21300   1.000
    C102    C    0.85119   0.92189   0.21300   1.000
    C103    C    0.34291   0.47840   0.17544   1.000
    C104    C    0.34291   0.97838   0.17540   1.000
    C105    C    0.84290   0.47840   0.17543   1.000
    C106    C    0.84290   0.97838   0.17544   1.000
    C107    C    0.31603   0.04364   0.23233   1.000
    C108    C    0.31602   0.54362   0.23233   1.000
    C109    C    0.81602   0.04364   0.23230   1.000
    C110    C    0.81602   0.54363   0.23233   1.000
    C111    C    0.29577   0.04859   0.32059   1.000
    C112    C    0.29577   0.54858   0.32059   1.000
    C113    C    0.79576   0.04859   0.32059   1.000
    C114    C    0.79575   0.54858   0.32059   1.000
    C115    C    0.36075   0.46941   0.08009   1.000
    C116    C    0.36075   0.96940   0.08009   1.000
    C117    C    0.86074   0.46941   0.08009   1.000
    C118    C    0.86074   0.96940   0.08009   1.000
    C119    C    0.44445   0.10239   0.55485   1.000
    C120    C    0.44445   0.60237   0.55485   1.000
    C121    C    0.94445   0.10239   0.55485   1.000
    C122    C    0.94444   0.60237   0.55485   1.000
    C123    C    0.08019   0.21956   0.30208   1.000
    C124    C    0.08019   0.71955   0.30208   1.000
    C125    C    0.58018   0.21956   0.30208   1.000
    C126    C    0.58018   0.71955   0.30208   1.000
    C127    C    0.10139   0.18458   0.21310   1.000
    C128    C    0.10139   0.68457   0.21314   1.000
    C129    C    0.60138   0.18458   0.21313   1.000
    C130    C    0.60137   0.68457   0.21313   1.000
    C131    C    0.09297   0.10933   0.17562   1.000
    C132    C    0.09296   0.60932   0.17560   1.000
    C133    C    0.59296   0.10933   0.17562   1.000
    C134    C    0.59296   0.60932   0.17562   1.000
    C135    C    0.06593   0.07257   0.23250   1.000
    C136    C    0.06593   0.57256   0.23250   1.000
    C137    C    0.56593   0.07257   0.23250   1.000
    C138    C    0.56592   0.57256   0.23252   1.000
    C139    C    0.04562   0.11174   0.32073   1.000
    C140    C    0.04561   0.61173   0.32073   1.000
    C141    C    0.54561   0.11174   0.32073   1.000
    C142    C    0.54561   0.61173   0.32073   1.000
    C143    C    0.11079   0.07067   0.08028   1.000
    C144    C    0.11079   0.57066   0.08028   1.000
    C145    C    0.61079   0.07067   0.08028   1.000
    C146    C    0.61078   0.57066   0.08028   1.000
    C147    C    0.19455   0.17499   0.55466   1.000
    C148    C    0.19455   0.67497   0.55466   1.000
    C149    C    0.69454   0.17499   0.55466   1.000
    C150    C    0.69454   0.67497   0.55466   1.000
    C151    C    0.16999   0.06861   0.69804   1.000
    C152    C    0.16998   0.56860   0.69804   1.000
    C153    C    0.66999   0.06861   0.69804   1.000
    C154    C    0.66998   0.56860   0.69804   1.000
    C155    C    0.14884   0.07812   0.78703   1.000
    C156    C    0.14884   0.57811   0.78703   1.000
    C157    C    0.64883   0.07812   0.78703   1.000
    C158    C    0.64883   0.57811   0.78703   1.000
    C159    C    0.15715   0.02163   0.82461   1.000
    C160    C    0.15714   0.52162   0.82461   1.000
    C161    C    0.65714   0.02163   0.82461   1.000
    C162    C    0.65713   0.52162   0.82461   1.000
    C163    C    0.18401   0.45639   0.76771   1.000
    C164    C    0.18401   0.95637   0.76771   1.000
    C165    C    0.68400   0.45639   0.76771   1.000
    C166    C    0.68400   0.95637   0.76771   1.000
    C167    C    0.20428   0.45143   0.67945   1.000
    C168    C    0.20428   0.95142   0.67945   1.000
    C169    C    0.70427   0.45143   0.67945   1.000
    C170    C    0.70427   0.95142   0.67945   1.000
    C171    C    0.13930   0.03062   0.91995   1.000
    C172    C    0.13929   0.53060   0.91995   1.000
    C173    C    0.63929   0.03062   0.91995   1.000
    C174    C    0.63929   0.53060   0.91995   1.000
    C175    C    0.05558   0.39764   0.44518   1.000
    C176    C    0.05558   0.89762   0.44518   1.000
    C177    C    0.55558   0.39764   0.44518   1.000
    C178    C    0.55558   0.89762   0.44518   1.000
    S179    S    0.87489   0.88581   0.99991   1.000
    S180    S    0.12515   0.11421   0.00012   1.000
    S181    S    0.12514   0.61420   0.00012   1.000
    S182    S    0.62514   0.11421   0.00012   1.000
    S183    S    0.62513   0.61420   0.00012   1.000
    N184    N    0.44890   0.31588   0.64529   1.000
    N185    N    0.44889   0.81587   0.64529   1.000
    N186    N    0.94889   0.31588   0.64529   1.000
    N187    N    0.94888   0.81587   0.64529   1.000
    N188    N    0.38334   0.99966   0.95462   1.000
    N189    N    0.38334   0.49965   0.95462   1.000
    N190    N    0.88334   0.99966   0.95462   1.000
    N191    N    0.88334   0.49965   0.95462   1.000
    N192    N    0.28475   0.38282   0.48732   1.000
    N193    N    0.28474   0.88281   0.48732   1.000
    N194    N    0.78474   0.38282   0.48732   1.000
    N195    N    0.78473   0.88281   0.48732   1.000
    N196    N    0.30118   0.49320   0.35460   1.000
    N197    N    0.30118   0.99318   0.35460   1.000
    N198    N    0.80118   0.49320   0.35460   1.000
    N199    N    0.80117   0.99318   0.35467   1.000
    N200    N    0.36685   0.02230   0.04525   1.000
    N201    N    0.36684   0.52229   0.04525   1.000
    N202    N    0.86684   0.02230   0.04525   1.000
    N203    N    0.86685   0.52229   0.04525   1.000
    N204    N    0.46520   0.13926   0.51293   1.000
    N205    N    0.46520   0.63925   0.51293   1.000
    N206    N    0.96520   0.13926   0.51293   1.000
    N207    N    0.96519   0.63924   0.51293   1.000
    N208    N    0.05114   0.18414   0.35475   1.000
    N209    N    0.05114   0.68413   0.35475   1.000
    N210    N    0.55113   0.18414   0.35475   1.000
    N211    N    0.55113   0.68413   0.35475   1.000
    N212    N    0.11670   0.50036   0.04542   1.000
    N213    N    0.11670   0.00000   0.04542   1.000
    N214    N    0.61670   0.50036   0.04543   1.000
    N215    N    0.61670   0.00000   0.04543   1.000
    N216    N    0.21529   0.11720   0.51272   1.000
    N217    N    0.21529   0.61719   0.51272   1.000
    N218    N    0.71529   0.11720   0.51272   1.000
    N219    N    0.71528   0.61719   0.51272   1.000
    N220    N    0.19886   0.00683   0.64536   1.000
    N221    N    0.19885   0.50682   0.64536   1.000
    N222    N    0.69885   0.00683   0.64536   1.000
    N223    N    0.69884   0.50682   0.64536   1.000
    N224    N    0.13319   0.47772   0.95479   1.000
    N225    N    0.13319   0.97771   0.95479   1.000
    N226    N    0.63319   0.47772   0.95480   1.000
    N227    N    0.63319   0.97771   0.95479   1.000
    N228    N    0.03484   0.36077   0.48711   1.000
    N229    N    0.03483   0.86075   0.48711   1.000
    N230    N    0.53483   0.36077   0.48711   1.000
    N231    N    0.53483   0.86075   0.48711   1.000
loop_
    _geom_bond_atom_site_label_1
    _geom_bond_atom_site_label_2
    _geom_bond_distance
    _geom_bond_site_symmetry_2
    _ccdc_geom_bond_type
    S180   C143      1.73822      .   S
    S180   C171      1.73823  1_554   S
    S181   C144      1.73822      .   S
    S181   C172      1.73821  1_554   S
    S182   C145      1.73819      .   S
    S182   C173      1.73823  1_554   S
    S183   C146      1.73817      .   S
    S183   C174      1.73824  1_554   S
    N200   C116      1.32518  1_545   S
    N200   N188      1.35922  1_544   S
    N201   C115      1.32472      .   S
    N201   N189      1.35924  1_554   S
    N202   C118      1.32521  1_545   S
    N202   N190      1.35921  1_544   S
    N203   C117      1.32477      .   S
    N203   N191      1.35920  1_554   S
    N213   C143      1.33164      .   S
    N213   N225      1.35923  1_544   S
    N212   C144      1.32477      .   S
    N212   N224      1.35920  1_554   S
    N215   C145      1.33164      .   S
    N215   N227      1.35936  1_544   S
    N214   C146      1.32478      .   S
    N214   N226      1.35921  1_554   S
    C115   C103      1.46244      .   S
    C115   S92       1.73825  1_554   S
    C116   C104      1.46186      .   S
    C116   S93       1.73824  1_554   S
    C117   C105      1.46232      .   S
    C117   S94       1.73828  1_554   S
    C118   C106      1.46243      .   S
    C118   S179      1.73823  1_554   S
    C146   C134      1.46248      .   S
    C143   C131      1.46248      .   S
    C144   C132      1.46225      .   S
    C145   C133      1.46248      .   S
    H23    C102      1.08982      .   S
    H20    C99       1.08981      .   S
    H21    C100      1.08983      .   S
    H22    C101      1.08981      .   S
    H37    C128      1.08987      .   S
    H38    C129      1.08977      .   S
    H36    C127      1.08942      .   S
    H39    C130      1.08975      .   S
    C104   C100      1.40402      .   S
    C104   C107      1.40526  1_565   S
    C105   C101      1.40371      .   S
    C105   C110      1.40476      .   S
    C103   C99       1.40365      .   S
    C103   C108      1.40472      .   S
    C106   C102      1.40366      .   S
    C106   C109      1.40490  1_565   S
    C132   C128      1.40378      .   S
    C132   C136      1.40459      .   S
    C131   C127      1.40377      .   S
    C131   C135      1.40437      .   S
    C133   C129      1.40378      .   S
    C133   C137      1.40436      .   S
    C134   C130      1.40378      .   S
    C134   C138      1.40462      .   S
    H25    C108      1.08888      .   S
    H27    C110      1.08886      .   S
    H26    C109      1.08806      .   S
    H24    C107      1.08834      .   S
    H43    C138      1.08836      .   S
    H42    C137      1.08836      .   S
    H40    C135      1.08836      .   S
    H41    C136      1.08836      .   S
    C99    C95       1.38793      .   S
    C100   C96       1.38794      .   S
    C101   C97       1.38798      .   S
    C102   C98       1.38790      .   S
    C127   C123      1.38831      .   S
    C129   C125      1.38793      .   S
    C130   C126      1.38792      .   S
    C128   C124      1.38784      .   S
    C109   C113      1.39114      .   S
    C110   C114      1.39078      .   S
    C108   C112      1.39073      .   S
    C107   C111      1.39074      .   S
    C135   C139      1.39110      .   S
    C136   C140      1.39114      .   S
    C137   C141      1.39111      .   S
    C138   C142      1.39086      .   S
    C98    H19       1.08914      .   S
    C98    N199      1.34612      .   S
    C97    H18       1.08910      .   S
    C97    N198      1.34574      .   S
    C95    H16       1.08912      .   S
    C95    N196      1.34576      .   S
    C96    H17       1.08912      .   S
    C96    N197      1.34576      .   S
    C124   H33       1.08915      .   S
    C124   N209      1.34615      .   S
    C123   H32       1.08917      .   S
    C123   N208      1.34616      .   S
    C126   H35       1.08917      .   S
    C126   N211      1.34616      .   S
    C125   H34       1.08917      .   S
    C125   N210      1.34617      .   S
    C114   N198      1.34890      .   S
    C114   H31       1.09057      .   S
    C111   N197      1.34938  1_545   S
    C111   H28       1.09058      .   S
    C113   N199      1.35007  1_545   S
    C113   H30       1.09059      .   S
    C112   N196      1.34892      .   S
    C112   H29       1.09059      .   S
    C142   N211      1.34968      .   S
    C142   H47       1.08428      .   S
    C141   N210      1.34967      .   S
    C141   H46       1.08428      .   S
    C140   N209      1.34967      .   S
    C140   H45       1.09051      .   S
    C139   N208      1.34968      .   S
    C139   H44       1.08428      .   S
    C175   N228      1.18619      .   S
    C176   N229      1.18621      .   S
    C177   N230      1.18619      .   S
    C178   N231      1.18619      .   S
    C90    N194      1.18645      .   S
    C91    N195      1.18616      .   S
    C89    N193      1.18615      .   S
    C88    N192      1.18616      .   S
    N219   C150      1.18612      .   S
    N216   C147      1.18612      .   S
    N217   C148      1.18613      .   S
    N218   C149      1.18613      .   S
    N206   C121      1.18609      .   S
    N204   C119      1.18609      .   S
    N205   C120      1.18609      .   S
    N207   C122      1.18607      .   S
    H13    C81       1.09114      .   S
    H14    C82       1.09064      .   S
    H12    C80       1.09063      .   S
    H15    C83       1.09062      .   S
    H63    C170      1.09054      .   S
    H60    C167      1.09055      .   S
    H61    C168      1.09055      .   S
    H62    C169      1.09055      .   S
    N184   C80       1.34967      .   S
    N184   C64       1.34542      .   S
    N185   C81       1.34966      .   S
    N185   C65       1.34604      .   S
    N186   C82       1.34966      .   S
    N186   C66       1.34603      .   S
    N187   C83       1.34966      .   S
    N187   C67       1.34600      .   S
    N223   C169      1.34964      .   S
    N223   C154      1.34616      .   S
    N222   C170      1.35009  1_545   S
    N222   C153      1.34614      .   S
    N221   C167      1.34964      .   S
    N221   C152      1.34617      .   S
    N220   C168      1.35009  1_545   S
    N220   C151      1.34615      .   S
    H0     C64       1.08945      .   S
    H3     C67       1.08915      .   S
    H2     C66       1.08915      .   S
    H1     C65       1.08915      .   S
    H51    C154      1.08957      .   S
    H49    C152      1.08958      .   S
    H48    C151      1.08957      .   S
    H50    C153      1.08907      .   S
    C83    C79       1.39080      .   S
    C80    C76       1.39061      .   S
    C81    C77       1.39062      .   S
    C82    C78       1.39076      .   S
    C170   C166      1.39083      .   S
    C169   C165      1.39080      .   S
    C168   C164      1.39081      .   S
    C167   C163      1.39080      .   S
    C64    C68       1.38856      .   S
    C67    C71       1.38798      .   S
    C66    C70       1.38795      .   S
    C65    C69       1.38794      .   S
    C152   C156      1.38784      .   S
    C151   C155      1.38786      .   S
    C153   C157      1.38788      .   S
    C154   C158      1.38786      .   S
    C76    H8        1.08835      .   S
    C76    C72       1.40460      .   S
    C77    H9        1.08836      .   S
    C77    C73       1.40460      .   S
    C78    H10       1.08835      .   S
    C78    C74       1.40472      .   S
    C79    H11       1.08836      .   S
    C79    C75       1.40443      .   S
    C163   H56       1.08759      .   S
    C163   C160      1.40475      .   S
    C164   H57       1.08757      .   S
    C164   C159      1.40507  1_565   S
    C165   H58       1.08830      .   S
    C165   C162      1.40475      .   S
    C166   H59       1.08830      .   S
    C166   C161      1.40504  1_565   S
    C71    C75       1.40378      .   S
    C71    H7        1.08939      .   S
    C70    C74       1.40377      .   S
    C70    H6        1.08988      .   S
    C68    C72       1.40378      .   S
    C68    H4        1.08988      .   S
    C69    C73       1.40376      .   S
    C69    H5        1.08988      .   S
    C158   C162      1.40377      .   S
    C158   H55       1.08984      .   S
    C157   C161      1.40377      .   S
    C157   H54       1.08983      .   S
    C156   C160      1.40379      .   S
    C156   H53       1.08984      .   S
    C155   C159      1.40377      .   S
    C155   H52       1.08985      .   S
    C75    C87       1.46275      .   S
    C72    C84       1.46273      .   S
    C73    C85       1.46273      .   S
    C74    C86       1.46249      .   S
    C162   C174      1.46233      .   S
    C161   C173      1.46235      .   S
    C160   C172      1.46233      .   S
    C159   C171      1.46233      .   S
    C86    N191      1.32477      .   S
    C86    S94       1.73797      .   S
    C85    N188      1.32522      .   S
    C85    S93       1.73803      .   S
    C84    N189      1.32477      .   S
    C84    S92       1.73802      .   S
    C87    N190      1.32521      .   S
    C87    S179      1.73806      .   S
    C171   N225      1.32520  1_545   S
    C172   N224      1.32475      .   S
    C173   N227      1.32517  1_545   S
    C174   N226      1.32482      .   S
