# CIF file generated by openbabel 2.4.90, see http://openbabel.sf.net
data_I
_chemical_name_common ''
_cell_length_a 15.295
_cell_length_b 19.779
_cell_length_c 15.02
_cell_angle_alpha 109.185
_cell_angle_beta 100.984
_cell_angle_gamma 90.011
_space_group_name_H-M_alt 'P 1'
_space_group_name_Hall 'P 1'
loop_
    _symmetry_equiv_pos_as_xyz
    x,y,z
loop_
    _atom_site_label
    _atom_site_type_symbol
    _atom_site_fract_x
    _atom_site_fract_y
    _atom_site_fract_z
    _atom_site_occupancy
    Cd0     Cd   0.00002   0.75000   0.50002   1.000
    Cd1     Cd   0.50001   0.25001   0.50002   1.000
    Cd2     Cd   0.50001   0.75000   0.50002   1.000
    Cd3     Cd   0.25002   0.00002   0.50002   1.000
    Cd4     Cd   0.25002   0.50001   0.50002   1.000
    Cd5     Cd   0.75001   0.00002   0.50002   1.000
    Cd6     Cd   0.75001   0.50001   0.50002   1.000
    H7      H    0.41390   0.22213   0.66700   1.000
    H8      H    0.41390   0.72211   0.66739   1.000
    H9      H    0.91389   0.22212   0.66739   1.000
    H10     H    0.91389   0.72211   0.66739   1.000
    H11     H    0.37532   0.28360   0.82584   1.000
    H12     H    0.37531   0.78359   0.82584   1.000
    H13     H    0.87531   0.28360   0.82584   1.000
    H14     H    0.87530   0.78358   0.82580   1.000
    H15     H    0.44015   0.48584   0.79263   1.000
    H16     H    0.44015   0.98582   0.79260   1.000
    H17     H    0.94014   0.48583   0.79263   1.000
    H18     H    0.94014   0.98582   0.79263   1.000
    H19     H    0.47664   0.41482   0.63354   1.000
    H20     H    0.47664   0.91480   0.63350   1.000
    H21     H    0.97663   0.41482   0.63354   1.000
    H22     H    0.97663   0.91480   0.63354   1.000
    H23     H    0.33590   0.38835   0.33259   1.000
    H24     H    0.33590   0.88834   0.33259   1.000
    H25     H    0.83589   0.38835   0.33259   1.000
    H26     H    0.83589   0.88834   0.33259   1.000
    H27     H    0.37440   0.37057   0.17407   1.000
    H28     H    0.37440   0.87056   0.17407   1.000
    H29     H    0.87440   0.37057   0.17407   1.000
    H30     H    0.87440   0.87056   0.17407   1.000
    H31     H    0.31008   0.08945   0.20716   1.000
    Cd32    Cd   0.00002   0.25001   0.50002   1.000
    H33     H    0.31008   0.58944   0.20710   1.000
    H34     H    0.81008   0.08945   0.20716   1.000
    H35     H    0.81007   0.58944   0.20710   1.000
    H36     H    0.27368   0.09802   0.36635   1.000
    H37     H    0.27367   0.59801   0.36635   1.000
    H38     H    0.77367   0.09802   0.36635   1.000
    H39     H    0.77367   0.59801   0.36635   1.000
    H40     H    0.08613   0.27790   0.33264   1.000
    H41     H    0.08613   0.77789   0.33264   1.000
    H42     H    0.58613   0.27790   0.33264   1.000
    H43     H    0.58612   0.77789   0.33264   1.000
    H44     H    0.12473   0.21643   0.17420   1.000
    H45     H    0.12473   0.71642   0.17420   1.000
    H46     H    0.62472   0.21643   0.17420   1.000
    H47     H    0.62471   0.71642   0.17420   1.000
    H48     H    0.05990   0.01419   0.20741   1.000
    H49     H    0.05989   0.51418   0.20741   1.000
    H50     H    0.55989   0.01419   0.20741   1.000
    H51     H    0.55989   0.51418   0.20741   1.000
    H52     H    0.02340   0.08521   0.36600   1.000
    H53     H    0.02340   0.58520   0.36649   1.000
    H54     H    0.52339   0.08521   0.36600   1.000
    H55     H    0.52339   0.58520   0.36600   1.000
    H56     H    0.16414   0.11167   0.66740   1.000
    H57     H    0.16414   0.61166   0.66740   1.000
    H58     H    0.66413   0.11167   0.66745   1.000
    H59     H    0.66413   0.61166   0.66740   1.000
    H60     H    0.12564   0.12945   0.82597   1.000
    H61     H    0.12563   0.62944   0.82597   1.000
    H62     H    0.62563   0.12945   0.82597   1.000
    H63     H    0.62563   0.62944   0.82597   1.000
    H64     H    0.18996   0.41057   0.79280   1.000
    H65     H    0.18996   0.91056   0.79280   1.000
    H66     H    0.68996   0.41057   0.79288   1.000
    H67     H    0.68995   0.91056   0.79288   1.000
    H68     H    0.22637   0.40200   0.63369   1.000
    H69     H    0.22636   0.90199   0.63369   1.000
    H70     H    0.72636   0.40200   0.63369   1.000
    H71     H    0.72635   0.90199   0.63369   1.000
    C72     C    0.41985   0.28046   0.69790   1.000
    C73     C    0.41985   0.78045   0.69795   1.000
    C74     C    0.91984   0.28046   0.69795   1.000
    C75     C    0.91984   0.78045   0.69795   1.000
    C76     C    0.39866   0.31544   0.78690   1.000
    C77     C    0.39865   0.81543   0.78690   1.000
    C78     C    0.89864   0.31544   0.78690   1.000
    C79     C    0.89864   0.81543   0.78690   1.000
    C80     C    0.40708   0.39070   0.82440   1.000
    C81     C    0.40708   0.89068   0.82440   1.000
    C82     C    0.90707   0.39070   0.82442   1.000
    C83     C    0.90707   0.89068   0.82440   1.000
    C84     C    0.43411   0.42746   0.76750   1.000
    C85     C    0.43411   0.92744   0.76750   1.000
    C86     C    0.93410   0.42745   0.76751   1.000
    C87     C    0.93410   0.92744   0.76751   1.000
    C88     C    0.45443   0.38829   0.67931   1.000
    C89     C    0.45443   0.88827   0.67931   1.000
    C90     C    0.95442   0.38828   0.67931   1.000
    C91     C    0.95442   0.88827   0.67931   1.000
    C92     C    0.38925   0.42935   0.91976   1.000
    C93     C    0.38925   0.92934   0.91976   1.000
    C94     C    0.88924   0.42935   0.91976   1.000
    C95     C    0.88924   0.92934   0.91976   1.000
    C96     C    0.30549   0.32504   0.44537   1.000
    C97     C    0.30549   0.82502   0.44537   1.000
    C98     C    0.80548   0.32504   0.44530   1.000
    C99     C    0.80548   0.82502   0.44537   1.000
    S100    S    0.58357   0.94821   0.38650   1.000
    S101    S    0.37491   0.38582   0.99991   1.000
    S102    S    0.37490   0.88581   0.99991   1.000
    S103    S    0.87488   0.38582   0.99990   1.000
    C104    C    0.33006   0.43141   0.30200   1.000
    C105    C    0.33005   0.93140   0.30200   1.000
    C106    C    0.83004   0.43141   0.30200   1.000
    C107    C    0.83005   0.93140   0.30200   1.000
    C108    C    0.35120   0.42190   0.21300   1.000
    C109    C    0.35120   0.92189   0.21300   1.000
    C110    C    0.85119   0.42190   0.21300   1.000
    C111    C    0.85119   0.92189   0.21300   1.000
    C112    C    0.34291   0.47840   0.17544   1.000
    C113    C    0.34291   0.97838   0.17540   1.000
    C114    C    0.84290   0.47840   0.17543   1.000
    C115    C    0.84290   0.97838   0.17544   1.000
    C116    C    0.31603   0.04364   0.23233   1.000
    C117    C    0.31602   0.54362   0.23233   1.000
    C118    C    0.81602   0.04364   0.23230   1.000
    C119    C    0.81602   0.54363   0.23233   1.000
    C120    C    0.29577   0.04859   0.32059   1.000
    C121    C    0.29577   0.54858   0.32059   1.000
    C122    C    0.79576   0.04859   0.32059   1.000
    C123    C    0.79575   0.54858   0.32059   1.000
    C124    C    0.36075   0.46941   0.08009   1.000
    C125    C    0.36075   0.96940   0.08009   1.000
    C126    C    0.86074   0.46941   0.08009   1.000
    C127    C    0.86074   0.96940   0.08009   1.000
    C128    C    0.44445   0.10239   0.55485   1.000
    C129    C    0.44445   0.60237   0.55485   1.000
    C130    C    0.94445   0.10239   0.55485   1.000
    C131    C    0.94444   0.60237   0.55485   1.000
    C132    C    0.08019   0.21956   0.30208   1.000
    C133    C    0.08019   0.71955   0.30208   1.000
    C134    C    0.58018   0.21956   0.30208   1.000
    C135    C    0.58018   0.71955   0.30208   1.000
    C136    C    0.10139   0.18458   0.21310   1.000
    C137    C    0.10139   0.68457   0.21314   1.000
    C138    C    0.60138   0.18458   0.21313   1.000
    C139    C    0.60137   0.68457   0.21313   1.000
    C140    C    0.09297   0.10933   0.17562   1.000
    C141    C    0.09296   0.60932   0.17560   1.000
    C142    C    0.59296   0.10933   0.17562   1.000
    C143    C    0.59296   0.60932   0.17562   1.000
    C144    C    0.06593   0.07257   0.23250   1.000
    C145    C    0.06593   0.57256   0.23250   1.000
    C146    C    0.56593   0.07257   0.23250   1.000
    C147    C    0.56592   0.57256   0.23252   1.000
    C148    C    0.04562   0.11174   0.32073   1.000
    C149    C    0.04561   0.61173   0.32073   1.000
    C150    C    0.54561   0.11174   0.32073   1.000
    C151    C    0.54561   0.61173   0.32073   1.000
    C152    C    0.11079   0.07067   0.08028   1.000
    C153    C    0.11079   0.57066   0.08028   1.000
    C154    C    0.61079   0.07067   0.08028   1.000
    C155    C    0.61078   0.57066   0.08028   1.000
    C156    C    0.19455   0.17499   0.55466   1.000
    C157    C    0.19455   0.67497   0.55466   1.000
    C158    C    0.69454   0.17499   0.55466   1.000
    C159    C    0.69454   0.67497   0.55466   1.000
    C160    C    0.16999   0.06861   0.69804   1.000
    C161    C    0.16998   0.56860   0.69804   1.000
    C162    C    0.66999   0.06861   0.69804   1.000
    C163    C    0.66998   0.56860   0.69804   1.000
    C164    C    0.14884   0.07812   0.78703   1.000
    C165    C    0.14884   0.57811   0.78703   1.000
    C166    C    0.64883   0.07812   0.78703   1.000
    C167    C    0.64883   0.57811   0.78703   1.000
    C168    C    0.15715   0.02163   0.82461   1.000
    C169    C    0.15714   0.52162   0.82461   1.000
    C170    C    0.65714   0.02163   0.82461   1.000
    C171    C    0.65713   0.52162   0.82461   1.000
    C172    C    0.18401   0.45639   0.76771   1.000
    C173    C    0.18401   0.95637   0.76771   1.000
    C174    C    0.68400   0.45639   0.76771   1.000
    C175    C    0.68400   0.95637   0.76771   1.000
    C176    C    0.20428   0.45143   0.67945   1.000
    C177    C    0.20428   0.95142   0.67945   1.000
    C178    C    0.70427   0.45143   0.67945   1.000
    C179    C    0.70427   0.95142   0.67945   1.000
    C180    C    0.13930   0.03062   0.91995   1.000
    C181    C    0.13929   0.53060   0.91995   1.000
    C182    C    0.63929   0.03062   0.91995   1.000
    C183    C    0.63929   0.53060   0.91995   1.000
    C184    C    0.05558   0.39764   0.44518   1.000
    C185    C    0.05558   0.89762   0.44518   1.000
    C186    C    0.55558   0.39764   0.44518   1.000
    C187    C    0.55558   0.89762   0.44518   1.000
    S188    S    0.33348   0.24521   0.38674   1.000
    S189    S    0.33348   0.74520   0.38674   1.000
    S190    S    0.83347   0.24521   0.38674   1.000
    S191    S    0.83347   0.74520   0.38674   1.000
    S192    S    0.41647   0.05180   0.61346   1.000
    S193    S    0.41646   0.55179   0.61346   1.000
    S194    S    0.91646   0.05180   0.61346   1.000
    S195    S    0.91645   0.55179   0.61346   1.000
    S196    S    0.16656   0.25481   0.61329   1.000
    S197    S    0.16656   0.75480   0.61329   1.000
    S198    S    0.66655   0.25481   0.61329   1.000
    S199    S    0.66655   0.75480   0.61329   1.000
    S200    S    0.08357   0.44822   0.38657   1.000
    S201    S    0.08357   0.94821   0.38657   1.000
    S202    S    0.58357   0.44822   0.38657   1.000
    S203    S    0.87489   0.88581   0.99991   1.000
    S204    S    0.12515   0.11421   0.00012   1.000
    S205    S    0.12514   0.61420   0.00012   1.000
    S206    S    0.62514   0.11421   0.00012   1.000
    S207    S    0.62513   0.61420   0.00012   1.000
    N208    N    0.44890   0.31588   0.64529   1.000
    N209    N    0.44889   0.81587   0.64529   1.000
    N210    N    0.94889   0.31588   0.64529   1.000
    N211    N    0.94888   0.81587   0.64529   1.000
    N212    N    0.38334   0.99966   0.95462   1.000
    N213    N    0.38334   0.49965   0.95462   1.000
    N214    N    0.88334   0.99966   0.95462   1.000
    N215    N    0.88334   0.49965   0.95462   1.000
    N216    N    0.28475   0.38282   0.48732   1.000
    N217    N    0.28474   0.88281   0.48732   1.000
    N218    N    0.78474   0.38282   0.48732   1.000
    N219    N    0.78473   0.88281   0.48732   1.000
    N220    N    0.30118   0.49320   0.35460   1.000
    N221    N    0.30118   0.99318   0.35460   1.000
    N222    N    0.80118   0.49320   0.35460   1.000
    N223    N    0.80117   0.99318   0.35467   1.000
    N224    N    0.36685   0.02230   0.04525   1.000
    N225    N    0.36684   0.52229   0.04525   1.000
    N226    N    0.86684   0.02230   0.04525   1.000
    N227    N    0.86685   0.52229   0.04525   1.000
    N228    N    0.46520   0.13926   0.51293   1.000
    N229    N    0.46520   0.63925   0.51293   1.000
    N230    N    0.96520   0.13926   0.51293   1.000
    N231    N    0.96519   0.63924   0.51293   1.000
    N232    N    0.05114   0.18414   0.35475   1.000
    N233    N    0.05114   0.68413   0.35475   1.000
    N234    N    0.55113   0.18414   0.35475   1.000
    N235    N    0.55113   0.68413   0.35475   1.000
    N236    N    0.11670   0.50036   0.04542   1.000
    N237    N    0.11670   0.00000   0.04542   1.000
    N238    N    0.61670   0.50036   0.04543   1.000
    N239    N    0.61670   0.00000   0.04543   1.000
    N240    N    0.21529   0.11720   0.51272   1.000
    N241    N    0.21529   0.61719   0.51272   1.000
    N242    N    0.71529   0.11720   0.51272   1.000
    N243    N    0.71528   0.61719   0.51272   1.000
    N244    N    0.19886   0.00683   0.64536   1.000
    N245    N    0.19885   0.50682   0.64536   1.000
    N246    N    0.69885   0.00683   0.64536   1.000
    N247    N    0.69884   0.50682   0.64536   1.000
    N248    N    0.13319   0.47772   0.95479   1.000
    N249    N    0.13319   0.97771   0.95479   1.000
    N250    N    0.63319   0.47772   0.95480   1.000
    N251    N    0.63319   0.97771   0.95479   1.000
    N252    N    0.03484   0.36077   0.48711   1.000
    N253    N    0.03483   0.86075   0.48711   1.000
    N254    N    0.53483   0.36077   0.48711   1.000
    N255    N    0.53483   0.86075   0.48711   1.000
loop_
    _geom_bond_atom_site_label_1
    _geom_bond_atom_site_label_2
    _geom_bond_distance
    _geom_bond_site_symmetry_2
    _ccdc_geom_bond_type
    S204   C152      1.73822      .   S
    S204   C180      1.73823  1_554   S
    S205   C153      1.73822      .   S
    S205   C181      1.73821  1_554   S
    S206   C154      1.73819      .   S
    S206   C182      1.73823  1_554   S
    S207   C155      1.73817      .   S
    S207   C183      1.73824  1_554   S
    N224   C125      1.32518  1_545   S
    N224   N212      1.35922  1_544   S
    N225   C124      1.32472      .   S
    N225   N213      1.35924  1_554   S
    N226   C127      1.32521  1_545   S
    N226   N214      1.35921  1_544   S
    N227   C126      1.32477      .   S
    N227   N215      1.35920  1_554   S
    N237   C152      1.33164      .   S
    N237   N249      1.35923  1_544   S
    N236   C153      1.32477      .   S
    N236   N248      1.35920  1_554   S
    N239   C154      1.33164      .   S
    N239   N251      1.35936  1_544   S
    N238   C155      1.32478      .   S
    N238   N250      1.35921  1_554   S
    C124   C112      1.46244      .   S
    C124   S101      1.73825  1_554   S
    C125   C113      1.46186      .   S
    C125   S102      1.73824  1_554   S
    C126   C114      1.46232      .   S
    C126   S103      1.73828  1_554   S
    C127   C115      1.46243      .   S
    C127   S203      1.73823  1_554   S
    C155   C143      1.46248      .   S
    C152   C140      1.46248      .   S
    C153   C141      1.46225      .   S
    C154   C142      1.46248      .   S
    H30    C111      1.08982      .   S
    H27    C108      1.08981      .   S
    H28    C109      1.08983      .   S
    H29    C110      1.08981      .   S
    H45    C137      1.08987      .   S
    H46    C138      1.08977      .   S
    H44    C136      1.08942      .   S
    H47    C139      1.08975      .   S
    C113   C109      1.40402      .   S
    C113   C116      1.40526  1_565   S
    C114   C110      1.40371      .   S
    C114   C119      1.40476      .   S
    C112   C108      1.40365      .   S
    C112   C117      1.40472      .   S
    C115   C111      1.40366      .   S
    C115   C118      1.40490  1_565   S
    C141   C137      1.40378      .   S
    C141   C145      1.40459      .   S
    C140   C136      1.40377      .   S
    C140   C144      1.40437      .   S
    C142   C138      1.40378      .   S
    C142   C146      1.40436      .   S
    C143   C139      1.40378      .   S
    C143   C147      1.40462      .   S
    H33    C117      1.08888      .   S
    H35    C119      1.08886      .   S
    H34    C118      1.08806      .   S
    H31    C116      1.08834      .   S
    H51    C147      1.08836      .   S
    H50    C146      1.08836      .   S
    H48    C144      1.08836      .   S
    H49    C145      1.08836      .   S
    C108   C104      1.38793      .   S
    C109   C105      1.38794      .   S
    C110   C106      1.38798      .   S
    C111   C107      1.38790      .   S
    C136   C132      1.38831      .   S
    C138   C134      1.38793      .   S
    C139   C135      1.38792      .   S
    C137   C133      1.38784      .   S
    C118   C122      1.39114      .   S
    C119   C123      1.39078      .   S
    C117   C121      1.39073      .   S
    C116   C120      1.39074      .   S
    C144   C148      1.39110      .   S
    C145   C149      1.39114      .   S
    C146   C150      1.39111      .   S
    C147   C151      1.39086      .   S
    C107   H26       1.08914      .   S
    C107   N223      1.34612      .   S
    C106   H25       1.08910      .   S
    C106   N222      1.34574      .   S
    C104   H23       1.08912      .   S
    C104   N220      1.34576      .   S
    C105   H24       1.08912      .   S
    C105   N221      1.34576      .   S
    C133   H41       1.08915      .   S
    C133   N233      1.34615      .   S
    C132   H40       1.08917      .   S
    C132   N232      1.34616      .   S
    C135   H43       1.08917      .   S
    C135   N235      1.34616      .   S
    C134   H42       1.08917      .   S
    C134   N234      1.34617      .   S
    C123   N222      1.34890      .   S
    C123   H39       1.09057      .   S
    C120   N221      1.34938  1_545   S
    C120   H36       1.09058      .   S
    C122   N223      1.35007  1_545   S
    C122   H38       1.09059      .   S
    C121   N220      1.34892      .   S
    C121   H37       1.09059      .   S
    C151   N235      1.34968      .   S
    C151   H55       1.08428      .   S
    C150   N234      1.34967      .   S
    C150   H54       1.08428      .   S
    C149   N233      1.34967      .   S
    C149   H53       1.09051      .   S
    C148   N232      1.34968      .   S
    C148   H52       1.08428      .   S
    N222   Cd6       2.42063      .   S
    N221   Cd3       2.42047  1_565   S
    N220   Cd4       2.42060      .   S
    N223   Cd5       2.41945  1_565   S
    N235   Cd2       2.41902      .   S
    N234   Cd1       2.41903      .   S
    N233   Cd0       2.41904      .   S
    N232   Cd32      2.41903      .   S
    S100   C187      1.63837      .   S
    S100   Cd5       2.76318  1_565   S
    S200   C184      1.63754      .   S
    S200   Cd4       2.76270      .   S
    S202   C186      1.63753      .   S
    S202   Cd6       2.76269      .   S
    S201   C185      1.63753      .   S
    S201   Cd3       2.76283  1_565   S
    S191   C99       1.63756      .   S
    S191   Cd0       2.76320  1_655   S
    S188   C96       1.63756      .   S
    S188   Cd1       2.76300      .   S
    S189   C97       1.63756      .   S
    S189   Cd2       2.76300      .   S
    S190   C98       1.63727      .   S
    S190   Cd32      2.76321  1_655   S
    C184   N252      1.18619      .   S
    C185   N253      1.18621      .   S
    C186   N254      1.18619      .   S
    C187   N255      1.18619      .   S
    C98    N218      1.18645      .   S
    C99    N219      1.18616      .   S
    C97    N217      1.18615      .   S
    C96    N216      1.18616      .   S
    N255   Cd2       2.33195      .   S
    N252   Cd32      2.33194      .   S
    N253   Cd0       2.33192      .   S
    N254   Cd1       2.33194      .   S
    N216   Cd4       2.33219      .   S
    N217   Cd3       2.33265  1_565   S
    N218   Cd6       2.33219      .   S
    N219   Cd5       2.33264  1_565   S
    Cd32   N230      2.33200  1_455   S
    Cd32   S196      2.76296      .   S
    Cd32   N210      2.41917  1_455   S
    Cd0    N231      2.33203  1_455   S
    Cd0    S197      2.76295      .   S
    Cd0    N211      2.41917  1_455   S
    Cd1    N228      2.33194      .   S
    Cd1    S198      2.76295      .   S
    Cd1    N208      2.41903      .   S
    Cd2    N229      2.33194      .   S
    Cd2    S199      2.76294      .   S
    Cd2    N209      2.41904      .   S
    Cd6    N243      2.33220      .   S
    Cd6    S195      2.76265      .   S
    Cd6    N247      2.41949      .   S
    Cd5    N242      2.33218      .   S
    Cd5    S194      2.76264      .   S
    Cd5    N246      2.41950      .   S
    Cd4    N241      2.33220      .   S
    Cd4    S193      2.76264      .   S
    Cd4    N245      2.41949      .   S
    Cd3    N240      2.33220      .   S
    Cd3    S192      2.76265      .   S
    Cd3    N244      2.41949      .   S
    N243   C159      1.18612      .   S
    N240   C156      1.18612      .   S
    N241   C157      1.18613      .   S
    N242   C158      1.18613      .   S
    N230   C130      1.18609      .   S
    N228   C128      1.18609      .   S
    N229   C129      1.18609      .   S
    N231   C131      1.18607      .   S
    C159   S199      1.63757      .   S
    C158   S198      1.63757      .   S
    C157   S197      1.63757      .   S
    C156   S196      1.63757      .   S
    C128   S192      1.63753      .   S
    C129   S193      1.63753      .   S
    C130   S194      1.63754      .   S
    C131   S195      1.63755      .   S
    H20    C89       1.09114      .   S
    H21    C90       1.09064      .   S
    H19    C88       1.09063      .   S
    H22    C91       1.09062      .   S
    H71    C179      1.09054      .   S
    H68    C176      1.09055      .   S
    H69    C177      1.09055      .   S
    H70    C178      1.09055      .   S
    N208   C88       1.34967      .   S
    N208   C72       1.34542      .   S
    N209   C89       1.34966      .   S
    N209   C73       1.34604      .   S
    N210   C90       1.34966      .   S
    N210   C74       1.34603      .   S
    N211   C91       1.34966      .   S
    N211   C75       1.34600      .   S
    N247   C178      1.34964      .   S
    N247   C163      1.34616      .   S
    N246   C179      1.35009  1_545   S
    N246   C162      1.34614      .   S
    N245   C176      1.34964      .   S
    N245   C161      1.34617      .   S
    N244   C177      1.35009  1_545   S
    N244   C160      1.34615      .   S
    H7     C72       1.08945      .   S
    H10    C75       1.08915      .   S
    H9     C74       1.08915      .   S
    H8     C73       1.08915      .   S
    H59    C163      1.08957      .   S
    H57    C161      1.08958      .   S
    H56    C160      1.08957      .   S
    H58    C162      1.08907      .   S
    C91    C87       1.39080      .   S
    C88    C84       1.39061      .   S
    C89    C85       1.39062      .   S
    C90    C86       1.39076      .   S
    C179   C175      1.39083      .   S
    C178   C174      1.39080      .   S
    C177   C173      1.39081      .   S
    C176   C172      1.39080      .   S
    C72    C76       1.38856      .   S
    C75    C79       1.38798      .   S
    C74    C78       1.38795      .   S
    C73    C77       1.38794      .   S
    C161   C165      1.38784      .   S
    C160   C164      1.38786      .   S
    C162   C166      1.38788      .   S
    C163   C167      1.38786      .   S
    C84    H15       1.08835      .   S
    C84    C80       1.40460      .   S
    C85    H16       1.08836      .   S
    C85    C81       1.40460      .   S
    C86    H17       1.08835      .   S
    C86    C82       1.40472      .   S
    C87    H18       1.08836      .   S
    C87    C83       1.40443      .   S
    C172   H64       1.08759      .   S
    C172   C169      1.40475      .   S
    C173   H65       1.08757      .   S
    C173   C168      1.40507  1_565   S
    C174   H66       1.08830      .   S
    C174   C171      1.40475      .   S
    C175   H67       1.08830      .   S
    C175   C170      1.40504  1_565   S
    C79    C83       1.40378      .   S
    C79    H14       1.08939      .   S
    C78    C82       1.40377      .   S
    C78    H13       1.08988      .   S
    C76    C80       1.40378      .   S
    C76    H11       1.08988      .   S
    C77    C81       1.40376      .   S
    C77    H12       1.08988      .   S
    C167   C171      1.40377      .   S
    C167   H63       1.08984      .   S
    C166   C170      1.40377      .   S
    C166   H62       1.08983      .   S
    C165   C169      1.40379      .   S
    C165   H61       1.08984      .   S
    C164   C168      1.40377      .   S
    C164   H60       1.08985      .   S
    C83    C95       1.46275      .   S
    C80    C92       1.46273      .   S
    C81    C93       1.46273      .   S
    C82    C94       1.46249      .   S
    C171   C183      1.46233      .   S
    C170   C182      1.46235      .   S
    C169   C181      1.46233      .   S
    C168   C180      1.46233      .   S
    C94    N215      1.32477      .   S
    C94    S103      1.73797      .   S
    C93    N212      1.32522      .   S
    C93    S102      1.73803      .   S
    C92    N213      1.32477      .   S
    C92    S101      1.73802      .   S
    C95    N214      1.32521      .   S
    C95    S203      1.73806      .   S
    C180   N249      1.32520  1_545   S
    C181   N248      1.32475      .   S
    C182   N251      1.32517  1_545   S
    C183   N250      1.32482      .   S
