# CIF file generated by openbabel 2.4.90, see http://openbabel.sf.net
data_I
_chemical_name_common ''
_cell_length_a 15.295
_cell_length_b 19.779
_cell_length_c 15.02
_cell_angle_alpha 109.185
_cell_angle_beta 100.984
_cell_angle_gamma 90.011
_space_group_name_H-M_alt 'P 1'
_space_group_name_Hall 'P 1'
loop_
    _symmetry_equiv_pos_as_xyz
    x,y,z
loop_
    _atom_site_label
    _atom_site_type_symbol
    _atom_site_fract_x
    _atom_site_fract_y
    _atom_site_fract_z
    _atom_site_occupancy
    Cd0     Cd   0.00002   0.75000   0.50002   1.000
    Cd1     Cd   0.50001   0.25001   0.50002   1.000
    Cd2     Cd   0.50001   0.75000   0.50002   1.000
    Cd3     Cd   0.25002   0.00002   0.50002   1.000
    Cd4     Cd   0.25002   0.50001   0.50002   1.000
    Cd5     Cd   0.75001   0.00002   0.50002   1.000
    Cd6     Cd   0.75001   0.50001   0.50002   1.000
    Cd7     Cd   0.00002   0.25001   0.50002   1.000
    S8      S    0.58357   0.94821   0.38650   1.000
    S9      S    0.33348   0.24521   0.38674   1.000
    S10     S    0.33348   0.74520   0.38674   1.000
    S11     S    0.83347   0.24521   0.38674   1.000
    S12     S    0.83347   0.74520   0.38674   1.000
    S13     S    0.41647   0.05180   0.61346   1.000
    S14     S    0.41646   0.55179   0.61346   1.000
    S15     S    0.91646   0.05180   0.61346   1.000
    S16     S    0.91645   0.55179   0.61346   1.000
    S17     S    0.16656   0.25481   0.61329   1.000
    S18     S    0.16656   0.75480   0.61329   1.000
    S19     S    0.66655   0.25481   0.61329   1.000
    S20     S    0.66655   0.75480   0.61329   1.000
    S21     S    0.08357   0.44822   0.38657   1.000
    S22     S    0.08357   0.94821   0.38657   1.000
    S23     S    0.58357   0.44822   0.38657   1.000
loop_
    _geom_bond_atom_site_label_1
    _geom_bond_atom_site_label_2
    _geom_bond_distance
    _geom_bond_site_symmetry_2
    _ccdc_geom_bond_type
    S8     Cd5       2.76318  1_565   S
    S21    Cd4       2.76270      .   S
    S23    Cd6       2.76269      .   S
    S22    Cd3       2.76283  1_565   S
    S12    Cd0       2.76320  1_655   S
    S9     Cd1       2.76300      .   S
    S10    Cd2       2.76300      .   S
    S11    Cd7       2.76321  1_655   S
    Cd7    S17       2.76296      .   S
    Cd0    S18       2.76295      .   S
    Cd1    S19       2.76295      .   S
    Cd2    S20       2.76294      .   S
    Cd6    S16       2.76265      .   S
    Cd5    S15       2.76264      .   S
    Cd4    S14       2.76264      .   S
    Cd3    S13       2.76265      .   S
