# CIF file generated by openbabel 2.4.90, see http://openbabel.sf.net
data_I
_chemical_name_common ''
_cell_length_a 15.295
_cell_length_b 19.779
_cell_length_c 15.02
_cell_angle_alpha 109.185
_cell_angle_beta 100.984
_cell_angle_gamma 90.011
_space_group_name_H-M_alt 'P 1'
_space_group_name_Hall 'P 1'
loop_
    _symmetry_equiv_pos_as_xyz
    x,y,z
loop_
    _atom_site_label
    _atom_site_type_symbol
    _atom_site_fract_x
    _atom_site_fract_y
    _atom_site_fract_z
    _atom_site_occupancy
    N0      N    0.37501   0.92778   0.99994   1.000
    N1      N    0.12503   0.07222   0.00007   1.000
    N2      N    0.62502   0.57223   0.00007   1.000
    N3      N    0.37501   0.42778   0.99992   1.000
    N4      N    0.87500   0.92778   0.99994   1.000
    N5      N    0.87500   0.42778   0.99994   1.000
    N6      N    0.62502   0.07222   0.00007   1.000
    N7      N    0.12503   0.57223   0.00009   1.000
    N8      N    0.95482   0.12082   0.53389   1.000
    N9      N    0.20492   0.14609   0.53369   1.000
    N10     N    0.20492   0.64608   0.53369   1.000
    N11     N    0.45483   0.12082   0.53389   1.000
    N12     N    0.70491   0.14609   0.53369   1.000
    N13     N    0.95482   0.62081   0.53389   1.000
    N14     N    0.70491   0.64608   0.53369   1.000
    N15     N    0.45483   0.62081   0.53389   1.000
    N16     N    0.04521   0.37920   0.46615   1.000
    N17     N    0.54520   0.87919   0.46615   1.000
    N18     N    0.54520   0.37920   0.46615   1.000
    N19     N    0.04521   0.87919   0.46615   1.000
    N20     N    0.79511   0.85392   0.46635   1.000
    N21     N    0.29512   0.85392   0.46635   1.000
    N22     N    0.79511   0.35393   0.46631   1.000
    N23     N    0.29512   0.35393   0.46635   1.000
    Zr24    Zr   0.00002   0.75000   0.50002   1.000
    O25     O    0.09638   0.71524   0.52942   1.000
    O26     O    0.98436   0.70386   0.51010   1.000
    O27     O    0.03766   0.69732   0.35688   1.000
    O28     O    0.96237   0.80268   0.64316   1.000
    O29     O    0.01567   0.79614   0.48994   1.000
    O30     O    0.90365   0.78476   0.47061   1.000
    Zr31    Zr   0.50001   0.75000   0.50002   1.000
    O32     O    0.48436   0.70386   0.51010   1.000
    O33     O    0.51566   0.79614   0.48994   1.000
    O34     O    0.53765   0.69732   0.35687   1.000
    O35     O    0.46237   0.80268   0.64316   1.000
    O36     O    0.59637   0.71524   0.52942   1.000
    O37     O    0.40366   0.78476   0.47061   1.000
    Zr38    Zr   0.25002   0.50001   0.50002   1.000
    O39     O    0.15371   0.45053   0.47051   1.000
    O40     O    0.23440   0.55117   0.51002   1.000
    O41     O    0.21238   0.51891   0.64320   1.000
    O42     O    0.26563   0.44884   0.49001   1.000
    O43     O    0.28766   0.48110   0.35682   1.000
    O44     O    0.34633   0.54948   0.52952   1.000
    Zr45    Zr   0.25002   0.00001   0.50002   1.000
    O46     O    0.15371   0.95053   0.47051   1.000
    O47     O    0.34633   0.04948   0.52952   1.000
    O48     O    0.23441   0.05118   0.51002   1.000
    O49     O    0.28766   0.98110   0.35682   1.000
    O50     O    0.26563   0.94884   0.49001   1.000
    O51     O    0.21238   0.01892   0.64320   1.000
    Zr52    Zr   0.75001   0.50000   0.50002   1.000
    O53     O    0.84632   0.54948   0.52952   1.000
    O54     O    0.65370   0.45053   0.47051   1.000
    O55     O    0.73439   0.55117   0.51002   1.000
    O56     O    0.76563   0.44884   0.49000   1.000
    O57     O    0.71237   0.51891   0.64320   1.000
    O58     O    0.78765   0.48110   0.35682   1.000
    Zr59    Zr   0.50002   0.25001   0.50002   1.000
    O60     O    0.46237   0.30269   0.64315   1.000
    O61     O    0.48437   0.20387   0.51010   1.000
    O62     O    0.53766   0.19733   0.35687   1.000
    O63     O    0.51566   0.29615   0.48994   1.000
    O64     O    0.59637   0.21525   0.52942   1.000
    O65     O    0.40366   0.28477   0.47061   1.000
    Zr66    Zr   0.75001   0.00001   0.49999   1.000
    O67     O    0.65370   0.95053   0.47049   1.000
    O68     O    0.71237   0.01892   0.64319   1.000
    O69     O    0.73440   0.05118   0.51001   1.000
    O70     O    0.76563   0.94884   0.49000   1.000
    O71     O    0.78766   0.98110   0.35682   1.000
    O72     O    0.84633   0.04948   0.52951   1.000
    Zr73    Zr   0.00002   0.25001   0.50002   1.000
    O74     O    0.90366   0.28477   0.47059   1.000
    O75     O    0.01567   0.29615   0.48994   1.000
    O76     O    0.98437   0.20387   0.51010   1.000
    O77     O    0.03766   0.19733   0.35687   1.000
    O78     O    0.96237   0.30269   0.64316   1.000
    O79     O    0.09638   0.21525   0.52942   1.000
loop_
    _geom_bond_atom_site_label_1
    _geom_bond_atom_site_label_2
    _geom_bond_distance
    _geom_bond_site_symmetry_2
    _ccdc_geom_bond_type
    Zr24   O25       1.67086      .   S
    N10    O25       2.15625      .   S
    Zr24   O26       1.00883  1_455   S
    N13    O26       1.86470      .   S
    Zr24   O27       2.24480      .   S
    N7     O27       5.53551      .   S
    Zr24   O28       2.24480  1_455   S
    N4     O28       5.53544      .   S
    Zr24   O29       1.00880      .   S
    N19    O29       1.86467      .   S
    Zr24   O30       1.67089  1_455   S
    N20    O30       2.15627      .   S
    Zr31   O32       1.00881      .   S
    N15    O32       1.86466      .   S
    Zr31   O33       1.00880      .   S
    N17    O33       1.86466      .   S
    Zr31   O34       2.24483      .   S
    N2     O34       5.53563      .   S
    Zr31   O35       2.24476      .   S
    N0     O35       5.53534      .   S
    Zr31   O36       1.67082      .   S
    N14    O36       2.15622      .   S
    Zr31   O37       1.67082      .   S
    N21    O37       2.15620      .   S
    Zr38   O39       1.67018      .   S
    N16    O39       2.15535      .   S
    Zr38   O40       1.00878      .   S
    N10    O40       1.86453      .   S
    Zr38   O41       2.24499      .   S
    N7     O41       5.53580  1_554   S
    Zr38   O42       1.00879      .   S
    N23    O42       1.86453      .   S
    Zr38   O43       2.24521      .   S
    N3     O43       5.53598  1_556   S
    Zr38   O44       1.67017      .   S
    N15    O44       2.15533      .   S
    Zr45   O46       1.67028  1_545   S
    N19    O46       2.15547      .   S
    Zr45   O47       1.67022      .   S
    N11    O47       2.15539      .   S
    Zr45   O48       1.00886      .   S
    N9     O48       1.86461      .   S
    Zr45   O49       2.24514  1_545   S
    N0     O49       5.53579  1_556   S
    Zr45   O50       1.00888  1_545   S
    N21    O50       1.86473      .   S
    Zr45   O51       2.24492      .   S
    N1     O51       5.53560  1_554   S
    Zr52   O53       1.67018      .   S
    N13    O53       2.15533      .   S
    Zr52   O54       1.67018      .   S
    N18    O54       2.15535      .   S
    Zr52   O55       1.00879      .   S
    N14    O55       1.86454      .   S
    Zr52   O56       1.00877      .   S
    N22    O56       1.86449      .   S
    Zr52   O57       2.24494      .   S
    N2     O57       5.53564  1_554   S
    Zr52   O58       2.24515      .   S
    N5     O58       5.53579  1_556   S
    Zr59   O60       2.24471      .   S
    N3     O60       5.53519      .   S
    Zr59   O61       1.00881      .   S
    N11    O61       1.86466      .   S
    Zr59   O62       2.24484      .   S
    N6     O62       5.53566      .   S
    Zr59   O63       1.00879      .   S
    N18    O63       1.86466      .   S
    Zr59   O64       1.67083      .   S
    N12    O64       2.15622      .   S
    Zr59   O65       1.67082      .   S
    N23    O65       2.15621      .   S
    Zr66   O67       1.67028  1_545   S
    N17    O67       2.15557      .   S
    Zr66   O68       2.24511      .   S
    N6     O68       5.53585  1_554   S
    Zr66   O69       1.00883      .   S
    N12    O69       1.86458      .   S
    Zr66   O70       1.00891  1_545   S
    N20    O70       1.86475      .   S
    Zr66   O71       2.24483  1_545   S
    N4     O71       5.53569  1_556   S
    Zr66   O72       1.67021      .   S
    N8     O72       2.15534      .   S
    Zr73   O74       1.67096  1_455   S
    N22    O74       2.15630      .   S
    Zr73   O75       1.00880      .   S
    N16    O75       1.86467      .   S
    Zr73   O76       1.00882  1_455   S
    N8     O76       1.86469      .   S
    Zr73   O77       2.24488      .   S
    N1     O77       5.53574      .   S
    Zr73   O78       2.24480  1_455   S
    N5     O78       5.53542      .   S
    Zr73   O79       1.67086      .   S
    N9     O79       2.15625      .   S
