# CIF file generated by openbabel 2.4.90, see http://openbabel.sf.net
data_I
_chemical_name_common ''
_cell_length_a 15.295
_cell_length_b 19.779
_cell_length_c 15.02
_cell_angle_alpha 109.185
_cell_angle_beta 100.984
_cell_angle_gamma 90.011
_space_group_name_H-M_alt 'P 1'
_space_group_name_Hall 'P 1'
loop_
    _symmetry_equiv_pos_as_xyz
    x,y,z
loop_
    _atom_site_label
    _atom_site_type_symbol
    _atom_site_fract_x
    _atom_site_fract_y
    _atom_site_fract_z
    _atom_site_occupancy
    Zr0     Zr   0.00002   0.25001   0.50002   1.000
    Zr1     Zr   0.00002   0.75000   0.50002   1.000
    Zr2     Zr   0.50001   0.25001   0.50002   1.000
    Zr3     Zr   0.50001   0.75000   0.50002   1.000
    Zr4     Zr   0.25002   0.00002   0.50002   1.000
    Zr5     Zr   0.25002   0.50001   0.50002   1.000
    Zr6     Zr   0.75001   0.00002   0.50002   1.000
    Zr7     Zr   0.75001   0.50001   0.50002   1.000
    Zr8     Zr   0.33348   0.24521   0.38674   1.000
    Zr9     Zr   0.33348   0.74520   0.38674   1.000
    Zr10    Zr   0.83347   0.24521   0.38674   1.000
    Zr11    Zr   0.83347   0.74520   0.38674   1.000
    Zr12    Zr   0.41647   0.05180   0.61346   1.000
    Zr13    Zr   0.41646   0.55179   0.61346   1.000
    Zr14    Zr   0.91646   0.05180   0.61346   1.000
    Zr15    Zr   0.91645   0.55179   0.61346   1.000
    Zr16    Zr   0.16656   0.25481   0.61329   1.000
    Zr17    Zr   0.16656   0.75480   0.61329   1.000
    Zr18    Zr   0.66655   0.25481   0.61329   1.000
    Zr19    Zr   0.66655   0.75480   0.61329   1.000
    Zr20    Zr   0.08357   0.44822   0.38657   1.000
    Zr21    Zr   0.08357   0.94821   0.38657   1.000
    Zr22    Zr   0.58357   0.44822   0.38657   1.000
    Zr23    Zr   0.58357   0.94821   0.38650   1.000
    O24     O    0.66679   0.97411   0.44326   1.000
    O25     O    0.16680   0.47411   0.44330   1.000
    O26     O    0.66679   0.47411   0.44330   1.000
    O27     O    0.16680   0.97411   0.44330   1.000
    O28     O    0.91675   0.74760   0.44338   1.000
    O29     O    0.41675   0.24761   0.44338   1.000
    O30     O    0.41675   0.74760   0.44338   1.000
    O31     O    0.91675   0.24761   0.44338   1.000
    O32     O    0.08329   0.25241   0.55666   1.000
    O33     O    0.08329   0.75240   0.55666   1.000
    O34     O    0.58328   0.25241   0.55666   1.000
    O35     O    0.58328   0.75240   0.55666   1.000
    O36     O    0.83323   0.52590   0.55674   1.000
    O37     O    0.83324   0.02591   0.55674   1.000
    O38     O    0.33324   0.52590   0.55674   1.000
    O39     O    0.33324   0.02591   0.55674   1.000
    N40     N    0.37501   0.92778   0.99994   1.000
    O41     O    0.42473   0.85536   0.78630   1.000
    O42     O    0.32531   0.96219   0.21362   1.000
    N43     N    0.12503   0.07222   0.00007   1.000
    O44     O    0.17473   0.03782   0.78638   1.000
    O45     O    0.07531   0.14465   0.21373   1.000
    N46     N    0.62502   0.57223   0.00007   1.000
    O47     O    0.57530   0.64465   0.21373   1.000
    O48     O    0.67472   0.53782   0.78638   1.000
    N49     N    0.37501   0.42778   0.99992   1.000
    O50     O    0.42473   0.35537   0.78629   1.000
    O51     O    0.32531   0.46219   0.21362   1.000
    N52     N    0.87500   0.92778   0.99994   1.000
    O53     O    0.82530   0.96219   0.21364   1.000
    O54     O    0.92473   0.85536   0.78630   1.000
    N55     N    0.87500   0.42778   0.99994   1.000
    O56     O    0.82530   0.46219   0.21362   1.000
    O57     O    0.92473   0.35537   0.78630   1.000
    N58     N    0.62502   0.07222   0.00007   1.000
    O59     O    0.67473   0.03782   0.78638   1.000
    O60     O    0.57530   0.14465   0.21373   1.000
    N61     N    0.12503   0.57223   0.00009   1.000
    O62     O    0.17473   0.53782   0.78639   1.000
    O63     O    0.07530   0.64465   0.21374   1.000
    N64     N    0.95482   0.12082   0.53389   1.000
    O65     O    0.94264   0.09896   0.55902   1.000
    O66     O    0.96872   0.15773   0.52018   1.000
    N67     N    0.20492   0.14609   0.53369   1.000
    O68     O    0.19274   0.18050   0.55883   1.000
    O69     O    0.21879   0.10235   0.52003   1.000
    N70     N    0.20492   0.64608   0.53369   1.000
    O71     O    0.19273   0.68048   0.55883   1.000
    O72     O    0.21879   0.60234   0.52003   1.000
    N73     N    0.45483   0.12082   0.53389   1.000
    O74     O    0.44264   0.09896   0.55902   1.000
    O75     O    0.46872   0.15773   0.52018   1.000
    N76     N    0.70491   0.14609   0.53369   1.000
    O77     O    0.69273   0.18050   0.55883   1.000
    O78     O    0.71878   0.10235   0.52003   1.000
    N79     N    0.95482   0.62081   0.53389   1.000
    O80     O    0.94263   0.59895   0.55902   1.000
    O81     O    0.96871   0.65772   0.52018   1.000
    N82     N    0.70491   0.64608   0.53369   1.000
    O83     O    0.69273   0.68048   0.55883   1.000
    O84     O    0.71878   0.60234   0.52003   1.000
    N85     N    0.45483   0.62081   0.53389   1.000
    O86     O    0.44264   0.59895   0.55902   1.000
    O87     O    0.46872   0.65772   0.52018   1.000
    N88     N    0.04521   0.37920   0.46615   1.000
    O89     O    0.05740   0.40106   0.44101   1.000
    O90     O    0.03132   0.34230   0.47986   1.000
    N91     N    0.54520   0.87919   0.46615   1.000
    O92     O    0.55739   0.90105   0.44099   1.000
    O93     O    0.53131   0.84228   0.47986   1.000
    N94     N    0.54520   0.37920   0.46615   1.000
    O95     O    0.53131   0.34230   0.47986   1.000
    O96     O    0.55739   0.40106   0.44101   1.000
    N97     N    0.04521   0.87919   0.46615   1.000
    O98     O    0.03132   0.84228   0.47986   1.000
    O99     O    0.05739   0.90105   0.44101   1.000
    N100    N    0.79511   0.85392   0.46635   1.000
    O101    O    0.80729   0.81951   0.44120   1.000
    O102    O    0.78124   0.89766   0.48001   1.000
    N103    N    0.29512   0.85392   0.46635   1.000
    O104    O    0.30730   0.81951   0.44120   1.000
    O105    O    0.28125   0.89766   0.48001   1.000
    N106    N    0.79511   0.35393   0.46631   1.000
    O107    O    0.80729   0.31953   0.44117   1.000
    O108    O    0.78124   0.39767   0.47999   1.000
    N109    N    0.29512   0.35393   0.46635   1.000
    O110    O    0.28125   0.39767   0.48001   1.000
    O111    O    0.30730   0.31953   0.44120   1.000
loop_
    _geom_bond_atom_site_label_1
    _geom_bond_atom_site_label_2
    _geom_bond_distance
    _geom_bond_site_symmetry_2
    _ccdc_geom_bond_type
    Zr23   O24       1.38159      .   S
    Zr6    O24       1.38159  1_545   S
    Zr20   O25       1.38135      .   S
    Zr5    O25       1.38135      .   S
    Zr22   O26       1.38134      .   S
    Zr7    O26       1.38134      .   S
    Zr21   O27       1.38141      .   S
    Zr4    O27       1.38141  1_545   S
    Zr11   O28       1.38160      .   S
    Zr1    O28       1.38160  1_455   S
    Zr8    O29       1.38150      .   S
    Zr2    O29       1.38150      .   S
    Zr9    O30       1.38150      .   S
    Zr3    O30       1.38150      .   S
    Zr10   O31       1.38160      .   S
    Zr0    O31       1.38160  1_455   S
    Zr0    O32       1.38148      .   S
    Zr16   O32       1.38148      .   S
    Zr1    O33       1.38147      .   S
    Zr17   O33       1.38147      .   S
    Zr2    O34       1.38147      .   S
    Zr18   O34       1.38147      .   S
    Zr3    O35       1.38147      .   S
    Zr19   O35       1.38147      .   S
    Zr7    O36       1.38132      .   S
    Zr15   O36       1.38132      .   S
    Zr6    O37       1.38132      .   S
    Zr14   O37       1.38132      .   S
    Zr5    O38       1.38132      .   S
    Zr13   O38       1.38132      .   S
    Zr4    O39       1.38133      .   S
    Zr12   O39       1.38133      .   S
    N40    O41       3.29187      .   S
    Zr3    O41       4.48948      .   S
    N40    O42       3.29194  1_556   S
    Zr4    O42       4.49030  1_545   S
    N43    O44       3.29198  1_554   S
    Zr4    O44       4.48982      .   S
    N43    O45       3.29216      .   S
    Zr0    O45       4.48977      .   S
    N46    O47       3.29210      .   S
    Zr3    O47       4.48970      .   S
    N46    O48       3.29199  1_554   S
    Zr7    O48       4.48983      .   S
    N49    O50       3.29177      .   S
    Zr2    O50       4.48938      .   S
    N49    O51       3.29207  1_556   S
    Zr5    O51       4.49047      .   S
    N52    O53       3.29216  1_556   S
    Zr6    O53       4.49000  1_545   S
    N52    O54       3.29193      .   S
    Zr1    O54       4.48960  1_455   S
    N55    O56       3.29193  1_556   S
    Zr7    O56       4.49035      .   S
    N55    O57       3.29192      .   S
    Zr0    O57       4.48958  1_455   S
    N58    O59       3.29203  1_554   S
    Zr6    O59       4.48988      .   S
    N58    O60       3.29212      .   S
    Zr2    O60       4.48973      .   S
    N61    O62       3.29210  1_554   S
    Zr5    O62       4.48994      .   S
    N61    O63       3.29200      .   S
    Zr1    O63       4.48961      .   S
    N64    O65       0.70590      .   S
    Zr14   O65       1.52467      .   S
    N64    O66       0.85778      .   S
    Zr0    O66       2.01764  1_455   S
    N67    O68       0.70592      .   S
    Zr16   O68       1.52470      .   S
    N67    O69       0.85768      .   S
    Zr4    O69       2.01758      .   S
    N70    O71       0.70592      .   S
    Zr17   O71       1.52470      .   S
    N70    O72       0.85768      .   S
    Zr5    O72       2.01758      .   S
    N73    O74       0.70590      .   S
    Zr12   O74       1.52466      .   S
    N73    O75       0.85777      .   S
    Zr2    O75       2.01759      .   S
    N76    O77       0.70592      .   S
    Zr18   O77       1.52470      .   S
    N76    O78       0.85767      .   S
    Zr6    O78       2.01757      .   S
    N79    O80       0.70590      .   S
    Zr15   O80       1.52467      .   S
    N79    O81       0.85779      .   S
    Zr1    O81       2.01765  1_455   S
    N82    O83       0.70592      .   S
    Zr19   O83       1.52470      .   S
    N82    O84       0.85768      .   S
    Zr7    O84       2.01758      .   S
    N85    O86       0.70590      .   S
    Zr13   O86       1.52467      .   S
    N85    O87       0.85777      .   S
    Zr3    O87       2.01759      .   S
    N88    O89       0.70593      .   S
    Zr20   O89       1.52470      .   S
    N88    O90       0.85778      .   S
    Zr0    O90       2.01760      .   S
    N91    O92       0.70613      .   S
    Zr23   O92       1.52532      .   S
    N91    O93       0.85779      .   S
    Zr3    O93       2.01761      .   S
    N94    O95       0.85778      .   S
    Zr2    O95       2.01760      .   S
    N94    O96       0.70593      .   S
    Zr22   O96       1.52469      .   S
    N97    O98       0.85778      .   S
    Zr1    O98       2.01760      .   S
    N97    O99       0.70593      .   S
    Zr21   O99       1.52469      .   S
    N100   O101      0.70593      .   S
    Zr11   O101      1.52471      .   S
    N100   O102      0.85778      .   S
    Zr6    O102      2.01791  1_545   S
    N103   O104      0.70592      .   S
    Zr9    O104      1.52470      .   S
    N103   O105      0.85778      .   S
    Zr4    O105      2.01791  1_545   S
    N106   O107      0.70593      .   S
    Zr10   O107      1.52456      .   S
    N106   O108      0.85766      .   S
    Zr7    O108      2.01754      .   S
    N109   O110      0.85767      .   S
    Zr5    O110      2.01757      .   S
    N109   O111      0.70593      .   S
    Zr8    O111      1.52471      .   S
